Program Version,EnergyPlus, Version 9.1.0-08d2e308bb, YMD=2019.04.09 23:08
! This file shows details about the branches, nodes, and other
! elements of the flow connections.
! This file is intended for use in "debugging" potential problems
! that may also be detected by the program, but may be more easily
! identified by "eye".
! This file is also intended to support software which draws a
! schematic diagram of the HVAC system.
! ===============================================================
! #Nodes,<Number of Unique Nodes>
 #Nodes,339
! <Node>,<NodeNumber>,<Node Name>,<Node Fluid Type>,<# Times Node Referenced After Definition>
 Node,1,CORE_BOTTOM ZN AIR TERMINAL OUTLET AIR NODE,Air,3
 Node,2,CORE_BOTTOM ZN FCU OUTLET AIR NODE,Air,3
 Node,3,CORE_BOTTOM ZN FCU INLET AIR NODE,Air,3
 Node,4,CORE_BOTTOM ZN RETURN AIR NODE,Air,2
 Node,5,CORE_MID ZN AIR TERMINAL OUTLET AIR NODE,Air,3
 Node,6,CORE_MID ZN FCU OUTLET AIR NODE,Air,3
 Node,7,CORE_MID ZN FCU INLET AIR NODE,Air,3
 Node,8,CORE_MID ZN RETURN AIR NODE,Air,2
 Node,9,CORE_TOP ZN AIR TERMINAL OUTLET AIR NODE,Air,3
 Node,10,CORE_TOP ZN FCU OUTLET AIR NODE,Air,3
 Node,11,CORE_TOP ZN FCU INLET AIR NODE,Air,3
 Node,12,CORE_TOP ZN RETURN AIR NODE,Air,2
 Node,13,PERIMETER_BOT_ZN_1 ZN AIR TERMINAL OUTLET AIR NODE,Air,3
 Node,14,PERIMETER_BOT_ZN_1 ZN FCU OUTLET AIR NODE,Air,3
 Node,15,PERIMETER_BOT_ZN_1 ZN FCU INLET AIR NODE,Air,3
 Node,16,PERIMETER_BOT_ZN_1 ZN RETURN AIR NODE,Air,2
 Node,17,PERIMETER_BOT_ZN_2 ZN AIR TERMINAL OUTLET AIR NODE,Air,3
 Node,18,PERIMETER_BOT_ZN_2 ZN FCU OUTLET AIR NODE,Air,3
 Node,19,PERIMETER_BOT_ZN_2 ZN FCU INLET AIR NODE,Air,3
 Node,20,PERIMETER_BOT_ZN_2 ZN RETURN AIR NODE,Air,2
 Node,21,PERIMETER_BOT_ZN_3 ZN AIR TERMINAL OUTLET AIR NODE,Air,3
 Node,22,PERIMETER_BOT_ZN_3 ZN FCU OUTLET AIR NODE,Air,3
 Node,23,PERIMETER_BOT_ZN_3 ZN FCU INLET AIR NODE,Air,3
 Node,24,PERIMETER_BOT_ZN_3 ZN RETURN AIR NODE,Air,2
 Node,25,PERIMETER_BOT_ZN_4 ZN AIR TERMINAL OUTLET AIR NODE,Air,3
 Node,26,PERIMETER_BOT_ZN_4 ZN FCU OUTLET AIR NODE,Air,3
 Node,27,PERIMETER_BOT_ZN_4 ZN FCU INLET AIR NODE,Air,3
 Node,28,PERIMETER_BOT_ZN_4 ZN RETURN AIR NODE,Air,2
 Node,29,PERIMETER_MID_ZN_1 ZN AIR TERMINAL OUTLET AIR NODE,Air,3
 Node,30,PERIMETER_MID_ZN_1 ZN FCU OUTLET AIR NODE,Air,3
 Node,31,PERIMETER_MID_ZN_1 ZN FCU INLET AIR NODE,Air,3
 Node,32,PERIMETER_MID_ZN_1 ZN RETURN AIR NODE,Air,2
 Node,33,PERIMETER_MID_ZN_2 ZN AIR TERMINAL OUTLET AIR NODE,Air,3
 Node,34,PERIMETER_MID_ZN_2 ZN FCU OUTLET AIR NODE,Air,3
 Node,35,PERIMETER_MID_ZN_2 ZN FCU INLET AIR NODE,Air,3
 Node,36,PERIMETER_MID_ZN_2 ZN RETURN AIR NODE,Air,2
 Node,37,PERIMETER_MID_ZN_3 ZN AIR TERMINAL OUTLET AIR NODE,Air,3
 Node,38,PERIMETER_MID_ZN_3 ZN FCU OUTLET AIR NODE,Air,3
 Node,39,PERIMETER_MID_ZN_3 ZN FCU INLET AIR NODE,Air,3
 Node,40,PERIMETER_MID_ZN_3 ZN RETURN AIR NODE,Air,2
 Node,41,PERIMETER_MID_ZN_4 ZN AIR TERMINAL OUTLET AIR NODE,Air,3
 Node,42,PERIMETER_MID_ZN_4 ZN FCU OUTLET AIR NODE,Air,3
 Node,43,PERIMETER_MID_ZN_4 ZN FCU INLET AIR NODE,Air,3
 Node,44,PERIMETER_MID_ZN_4 ZN RETURN AIR NODE,Air,2
 Node,45,PERIMETER_TOP_ZN_1 ZN AIR TERMINAL OUTLET AIR NODE,Air,3
 Node,46,PERIMETER_TOP_ZN_1 ZN FCU OUTLET AIR NODE,Air,3
 Node,47,PERIMETER_TOP_ZN_1 ZN FCU INLET AIR NODE,Air,3
 Node,48,PERIMETER_TOP_ZN_1 ZN RETURN AIR NODE,Air,2
 Node,49,PERIMETER_TOP_ZN_2 ZN AIR TERMINAL OUTLET AIR NODE,Air,3
 Node,50,PERIMETER_TOP_ZN_2 ZN FCU OUTLET AIR NODE,Air,3
 Node,51,PERIMETER_TOP_ZN_2 ZN FCU INLET AIR NODE,Air,3
 Node,52,PERIMETER_TOP_ZN_2 ZN RETURN AIR NODE,Air,2
 Node,53,PERIMETER_TOP_ZN_3 ZN AIR TERMINAL OUTLET AIR NODE,Air,3
 Node,54,PERIMETER_TOP_ZN_3 ZN FCU OUTLET AIR NODE,Air,3
 Node,55,PERIMETER_TOP_ZN_3 ZN FCU INLET AIR NODE,Air,3
 Node,56,PERIMETER_TOP_ZN_3 ZN RETURN AIR NODE,Air,2
 Node,57,PERIMETER_TOP_ZN_4 ZN AIR TERMINAL OUTLET AIR NODE,Air,3
 Node,58,PERIMETER_TOP_ZN_4 ZN FCU OUTLET AIR NODE,Air,3
 Node,59,PERIMETER_TOP_ZN_4 ZN FCU INLET AIR NODE,Air,3
 Node,60,PERIMETER_TOP_ZN_4 ZN RETURN AIR NODE,Air,2
 Node,61,15 ZONE DOAS SUPPLY OUTLET NODE,Air,14
 Node,62,15 ZONE DOAS DEMAND INLET NODE,Air,3
 Node,63,15 ZONE DOAS SUPPLY INLET NODE,Air,2
 Node,64,DOAS EXHAUST FAN OUTLET AIR NODE,Air,5
 Node,65,15 ZONE DOAS MIXED AIR NODE,Air,5
 Node,66,15 ZONE DOAS CLG COIL OUTLET AIR NODE,Air,5
 Node,67,15 ZONE DOAS HTG COIL OUTLET AIR NODE,Air,10
 Node,68,CHILLED WATER LOOP SUPPLY INLET NODE,Water,2
 Node,69,CHILLED WATER LOOP PRIMARY PUMP OUTLET WATER NODE,Water,1
 Node,70,NREL ZNE READY 2017 WATERCOOLED  ROTARY SCREW CHILLER 0 SUPPLY INLET WATER NODE,Water,1
 Node,71,NREL ZNE READY 2017 WATERCOOLED  ROTARY SCREW CHILLER 0 SUPPLY OUTLET WATER NODE,Water,1
 Node,72,CHILLED WATER LOOP CHILLER BYPASS INLET WATER NODE,Water,1
 Node,73,CHILLED WATER LOOP CHILLER BYPASS OUTLET WATER NODE,Water,1
 Node,74,CHILLED WATER LOOP SUPPLY OUTLET INLET WATER NODE,Water,1
 Node,75,CHILLED WATER LOOP SUPPLY OUTLET NODE,Water,4
 Node,76,CHILLED WATER LOOP DEMAND INLET NODE,Water,2
 Node,77,CHILLED WATER LOOP SECONDARY PUMP INLET WATER NODE,Water,3
 Node,78,CHILLED WATER LOOP SECONDARY PUMP OUTLET WATER NODE,Water,1
 Node,79,CHILLED WATER LOOP COIL BYPASS INLET WATER NODE,Water,1
 Node,80,CHILLED WATER LOOP COIL BYPASS OUTLET WATER NODE,Water,1
 Node,81,15 ZONE DOAS CLG COIL INLET WATER NODE,Water,2
 Node,82,15 ZONE DOAS CLG COIL OUTLET WATER NODE,Water,1
 Node,83,PERIMETER_TOP_ZN_3 ZN FCU COOLING COIL INLET WATER NODE,Water,1
 Node,84,PERIMETER_TOP_ZN_3 ZN FCU COOLING COIL OUTLET WATER NODE,Water,1
 Node,85,PERIMETER_TOP_ZN_2 ZN FCU COOLING COIL INLET WATER NODE,Water,1
 Node,86,PERIMETER_TOP_ZN_2 ZN FCU COOLING COIL OUTLET WATER NODE,Water,1
 Node,87,PERIMETER_MID_ZN_4 ZN FCU COOLING COIL INLET WATER NODE,Water,1
 Node,88,PERIMETER_MID_ZN_4 ZN FCU COOLING COIL OUTLET WATER NODE,Water,1
 Node,89,PERIMETER_BOT_ZN_3 ZN FCU COOLING COIL INLET WATER NODE,Water,1
 Node,90,PERIMETER_BOT_ZN_3 ZN FCU COOLING COIL OUTLET WATER NODE,Water,1
 Node,91,PERIMETER_MID_ZN_3 ZN FCU COOLING COIL INLET WATER NODE,Water,1
 Node,92,PERIMETER_MID_ZN_3 ZN FCU COOLING COIL OUTLET WATER NODE,Water,1
 Node,93,PERIMETER_BOT_ZN_2 ZN FCU COOLING COIL INLET WATER NODE,Water,1
 Node,94,PERIMETER_BOT_ZN_2 ZN FCU COOLING COIL OUTLET WATER NODE,Water,1
 Node,95,PERIMETER_MID_ZN_1 ZN FCU COOLING COIL INLET WATER NODE,Water,1
 Node,96,PERIMETER_MID_ZN_1 ZN FCU COOLING COIL OUTLET WATER NODE,Water,1
 Node,97,CORE_MID ZN FCU COOLING COIL INLET WATER NODE,Water,1
 Node,98,CORE_MID ZN FCU COOLING COIL OUTLET WATER NODE,Water,1
 Node,99,PERIMETER_BOT_ZN_1 ZN FCU COOLING COIL INLET WATER NODE,Water,1
 Node,100,PERIMETER_BOT_ZN_1 ZN FCU COOLING COIL OUTLET WATER NODE,Water,1
 Node,101,PERIMETER_TOP_ZN_1 ZN FCU COOLING COIL INLET WATER NODE,Water,1
 Node,102,PERIMETER_TOP_ZN_1 ZN FCU COOLING COIL OUTLET WATER NODE,Water,1
 Node,103,PERIMETER_MID_ZN_2 ZN FCU COOLING COIL INLET WATER NODE,Water,1
 Node,104,PERIMETER_MID_ZN_2 ZN FCU COOLING COIL OUTLET WATER NODE,Water,1
 Node,105,PERIMETER_BOT_ZN_4 ZN FCU COOLING COIL INLET WATER NODE,Water,1
 Node,106,PERIMETER_BOT_ZN_4 ZN FCU COOLING COIL OUTLET WATER NODE,Water,1
 Node,107,CORE_TOP ZN FCU COOLING COIL INLET WATER NODE,Water,1
 Node,108,CORE_TOP ZN FCU COOLING COIL OUTLET WATER NODE,Water,1
 Node,109,PERIMETER_TOP_ZN_4 ZN FCU COOLING COIL INLET WATER NODE,Water,1
 Node,110,PERIMETER_TOP_ZN_4 ZN FCU COOLING COIL OUTLET WATER NODE,Water,1
 Node,111,CORE_BOTTOM ZN FCU COOLING COIL INLET WATER NODE,Water,1
 Node,112,CORE_BOTTOM ZN FCU COOLING COIL OUTLET WATER NODE,Water,1
 Node,113,CHILLED WATER LOOP DEMAND BYPASS PIPE INLET NODE,Water,1
 Node,114,CHILLED WATER LOOP DEMAND BYPASS PIPE OUTLET NODE,Water,1
 Node,115,CHILLED WATER LOOP DEMAND OUTLET INLET WATER NODE,Water,1
 Node,116,CHILLED WATER LOOP DEMAND OUTLET NODE,Water,2
 Node,117,CONDENSER WATER LOOP SUPPLY INLET NODE,Water,2
 Node,118,CONDENSER WATER LOOP CONSTANT PUMP OUTLET WATER NODE,Water,1
 Node,119,PROPELLER OR AXIAL VARIABLE SPEED FAN OPEN COOLING TOWER INLET WATER NODE,Water,1
 Node,120,PROPELLER OR AXIAL VARIABLE SPEED FAN OPEN COOLING TOWER OUTLET WATER NODE,Water,1
 Node,121,CONDENSER WATER LOOP COOLING TOWER BYPASS INLET WATER NODE,Water,1
 Node,122,CONDENSER WATER LOOP COOLING TOWER BYPASS OUTLET WATER NODE,Water,1
 Node,123,CONDENSER WATER LOOP SUPPLY OUTLET INLET WATER NODE,Water,1
 Node,124,CONDENSER WATER LOOP SUPPLY OUTLET NODE,Water,4
 Node,125,CONDENSER WATER LOOP DEMAND INLET NODE,Water,2
 Node,126,CONDENSER WATER LOOP DEMAND INLET OUTLET WATER NODE,Water,1
 Node,127,CONDENSER WATER LOOP CHILLER BYPASS INLET WATER NODE,Water,1
 Node,128,CONDENSER WATER LOOP CHILLER BYPASS OUTLET WATER NODE,Water,1
 Node,129,NREL ZNE READY 2017 WATERCOOLED  ROTARY SCREW CHILLER 0 DEMAND INLET WATER NODE,Water,1
 Node,130,NREL ZNE READY 2017 WATERCOOLED  ROTARY SCREW CHILLER 0 DEMAND OUTLET WATER NODE,Water,1
 Node,131,CONDENSER WATER LOOP DEMAND BYPASS PIPE INLET NODE,Water,1
 Node,132,CONDENSER WATER LOOP DEMAND BYPASS PIPE OUTLET NODE,Water,1
 Node,133,CONDENSER WATER LOOP DEMAND OUTLET INLET WATER NODE,Water,1
 Node,134,CONDENSER WATER LOOP DEMAND OUTLET NODE,Water,2
 Node,135,HOT WATER LOOP SUPPLY INLET NODE,Water,2
 Node,136,HOT WATER LOOP PUMP OUTLET WATER NODE,Water,1
 Node,137,BOILER INLET WATER NODE,Water,1
 Node,138,BOILER OUTLET WATER NODE,Water,1
 Node,139,HOT WATER LOOP SUPPLY EQUIPMENT BYPASS INLET WATER NODE,Water,1
 Node,140,HOT WATER LOOP SUPPLY EQUIPMENT BYPASS OUTLET WATER NODE,Water,1
 Node,141,HOT WATER LOOP SUPPLY OUTLET INLET WATER NODE,Water,1
 Node,142,HOT WATER LOOP SUPPLY OUTLET NODE,Water,4
 Node,143,HOT WATER LOOP DEMAND INLET NODE,Water,2
 Node,144,HOT WATER LOOP DEMAND INLET OUTLET WATER NODE,Water,1
 Node,145,HOT WATER LOOP COIL BYPASS INLET WATER NODE,Water,1
 Node,146,HOT WATER LOOP COIL BYPASS OUTLET WATER NODE,Water,1
 Node,147,15 ZONE DOAS HTG COIL INLET WATER NODE,Water,2
 Node,148,15 ZONE DOAS HTG COIL OUTLET WATER NODE,Water,1
 Node,149,PERIMETER_TOP_ZN_3 ZN FCU HEATING COIL INLET WATER NODE,Water,1
 Node,150,PERIMETER_TOP_ZN_3 ZN FCU HEATING COIL OUTLET WATER NODE,Water,1
 Node,151,PERIMETER_TOP_ZN_2 ZN FCU HEATING COIL INLET WATER NODE,Water,1
 Node,152,PERIMETER_TOP_ZN_2 ZN FCU HEATING COIL OUTLET WATER NODE,Water,1
 Node,153,PERIMETER_MID_ZN_4 ZN FCU HEATING COIL INLET WATER NODE,Water,1
 Node,154,PERIMETER_MID_ZN_4 ZN FCU HEATING COIL OUTLET WATER NODE,Water,1
 Node,155,PERIMETER_BOT_ZN_3 ZN FCU HEATING COIL INLET WATER NODE,Water,1
 Node,156,PERIMETER_BOT_ZN_3 ZN FCU HEATING COIL OUTLET WATER NODE,Water,1
 Node,157,PERIMETER_MID_ZN_3 ZN FCU HEATING COIL INLET WATER NODE,Water,1
 Node,158,PERIMETER_MID_ZN_3 ZN FCU HEATING COIL OUTLET WATER NODE,Water,1
 Node,159,PERIMETER_BOT_ZN_2 ZN FCU HEATING COIL INLET WATER NODE,Water,1
 Node,160,PERIMETER_BOT_ZN_2 ZN FCU HEATING COIL OUTLET WATER NODE,Water,1
 Node,161,PERIMETER_MID_ZN_1 ZN FCU HEATING COIL INLET WATER NODE,Water,1
 Node,162,PERIMETER_MID_ZN_1 ZN FCU HEATING COIL OUTLET WATER NODE,Water,1
 Node,163,CORE_MID ZN FCU HEATING COIL INLET WATER NODE,Water,1
 Node,164,CORE_MID ZN FCU HEATING COIL OUTLET WATER NODE,Water,1
 Node,165,PERIMETER_BOT_ZN_1 ZN FCU HEATING COIL INLET WATER NODE,Water,1
 Node,166,PERIMETER_BOT_ZN_1 ZN FCU HEATING COIL OUTLET WATER NODE,Water,1
 Node,167,PERIMETER_TOP_ZN_1 ZN FCU HEATING COIL INLET WATER NODE,Water,1
 Node,168,PERIMETER_TOP_ZN_1 ZN FCU HEATING COIL OUTLET WATER NODE,Water,1
 Node,169,PERIMETER_MID_ZN_2 ZN FCU HEATING COIL INLET WATER NODE,Water,1
 Node,170,PERIMETER_MID_ZN_2 ZN FCU HEATING COIL OUTLET WATER NODE,Water,1
 Node,171,PERIMETER_BOT_ZN_4 ZN FCU HEATING COIL INLET WATER NODE,Water,1
 Node,172,PERIMETER_BOT_ZN_4 ZN FCU HEATING COIL OUTLET WATER NODE,Water,1
 Node,173,CORE_TOP ZN FCU HEATING COIL INLET WATER NODE,Water,1
 Node,174,CORE_TOP ZN FCU HEATING COIL OUTLET WATER NODE,Water,1
 Node,175,PERIMETER_TOP_ZN_4 ZN FCU HEATING COIL INLET WATER NODE,Water,1
 Node,176,PERIMETER_TOP_ZN_4 ZN FCU HEATING COIL OUTLET WATER NODE,Water,1
 Node,177,CORE_BOTTOM ZN FCU HEATING COIL INLET WATER NODE,Water,1
 Node,178,CORE_BOTTOM ZN FCU HEATING COIL OUTLET WATER NODE,Water,1
 Node,179,HOT WATER LOOP DEMAND BYPASS PIPE INLET NODE,Water,1
 Node,180,HOT WATER LOOP DEMAND BYPASS PIPE OUTLET NODE,Water,1
 Node,181,HOT WATER LOOP DEMAND OUTLET INLET WATER NODE,Water,1
 Node,182,HOT WATER LOOP DEMAND OUTLET NODE,Water,2
 Node,183,MAIN SERVICE WATER LOOP SUPPLY INLET NODE,Water,2
 Node,184,SERVICE WATER LOOP PUMP OUTLET WATER NODE,Water,1
 Node,185,100GAL NATURAL GAS WATER HEATER - 100KBTU/HR 0.802 THERM EFF SUPPLY INLET WATER NODE,Water,1
 Node,186,100GAL NATURAL GAS WATER HEATER - 100KBTU/HR 0.802 THERM EFF SUPPLY OUTLET WATER NODE,Water,1
 Node,187,PIPE ADIABATIC 1 INLET WATER NODE,Water,1
 Node,188,PIPE ADIABATIC 1 OUTLET WATER NODE,Water,1
 Node,189,PIPE ADIABATIC 3 INLET WATER NODE,Water,1
 Node,190,MAIN SERVICE WATER LOOP SUPPLY OUTLET NODE,Water,4
 Node,191,MAIN SERVICE WATER LOOP DEMAND INLET NODE,Water,2
 Node,192,PIPE ADIABATIC 4 OUTLET WATER NODE,Water,1
 Node,193,PIPE ADIABATIC 2 INLET WATER NODE,Water,1
 Node,194,PIPE ADIABATIC 2 OUTLET WATER NODE,Water,1
 Node,195,WATER USE CONNECTIONS 1 INLET WATER NODE,Water,1
 Node,196,WATER USE CONNECTIONS 1 OUTLET WATER NODE,Water,1
 Node,197,WATER USE CONNECTIONS 2 INLET WATER NODE,Water,1
 Node,198,WATER USE CONNECTIONS 2 OUTLET WATER NODE,Water,1
 Node,199,WATER USE CONNECTIONS 3 INLET WATER NODE,Water,1
 Node,200,WATER USE CONNECTIONS 3 OUTLET WATER NODE,Water,1
 Node,201,WATER USE CONNECTIONS 4 INLET WATER NODE,Water,1
 Node,202,WATER USE CONNECTIONS 4 OUTLET WATER NODE,Water,1
 Node,203,WATER USE CONNECTIONS 5 INLET WATER NODE,Water,1
 Node,204,WATER USE CONNECTIONS 5 OUTLET WATER NODE,Water,1
 Node,205,WATER USE CONNECTIONS 6 INLET WATER NODE,Water,1
 Node,206,WATER USE CONNECTIONS 6 OUTLET WATER NODE,Water,1
 Node,207,WATER USE CONNECTIONS 7 INLET WATER NODE,Water,1
 Node,208,WATER USE CONNECTIONS 7 OUTLET WATER NODE,Water,1
 Node,209,WATER USE CONNECTIONS 8 INLET WATER NODE,Water,1
 Node,210,WATER USE CONNECTIONS 8 OUTLET WATER NODE,Water,1
 Node,211,WATER USE CONNECTIONS 9 INLET WATER NODE,Water,1
 Node,212,WATER USE CONNECTIONS 9 OUTLET WATER NODE,Water,1
 Node,213,WATER USE CONNECTIONS 10 INLET WATER NODE,Water,1
 Node,214,WATER USE CONNECTIONS 10 OUTLET WATER NODE,Water,1
 Node,215,WATER USE CONNECTIONS 11 INLET WATER NODE,Water,1
 Node,216,WATER USE CONNECTIONS 11 OUTLET WATER NODE,Water,1
 Node,217,WATER USE CONNECTIONS 12 INLET WATER NODE,Water,1
 Node,218,WATER USE CONNECTIONS 12 OUTLET WATER NODE,Water,1
 Node,219,WATER USE CONNECTIONS 13 INLET WATER NODE,Water,1
 Node,220,WATER USE CONNECTIONS 13 OUTLET WATER NODE,Water,1
 Node,221,WATER USE CONNECTIONS 14 INLET WATER NODE,Water,1
 Node,222,WATER USE CONNECTIONS 14 OUTLET WATER NODE,Water,1
 Node,223,WATER USE CONNECTIONS 15 INLET WATER NODE,Water,1
 Node,224,WATER USE CONNECTIONS 15 OUTLET WATER NODE,Water,1
 Node,225,MAIN SERVICE WATER LOOP DEMAND BYPASS PIPE INLET NODE,Water,1
 Node,226,MAIN SERVICE WATER LOOP DEMAND BYPASS PIPE OUTLET NODE,Water,1
 Node,227,PIPE ADIABATIC 5 INLET WATER NODE,Water,1
 Node,228,MAIN SERVICE WATER LOOP DEMAND OUTLET NODE,Water,2
 Node,229,CORE_BOTTOM ZN ZONE AIR NODE,Air,0
 Node,230,CORE_MID ZN ZONE AIR NODE,Air,0
 Node,231,CORE_TOP ZN ZONE AIR NODE,Air,0
 Node,232,PERIMETER_BOT_ZN_1 ZN ZONE AIR NODE,Air,0
 Node,233,PERIMETER_BOT_ZN_2 ZN ZONE AIR NODE,Air,0
 Node,234,PERIMETER_BOT_ZN_3 ZN ZONE AIR NODE,Air,0
 Node,235,PERIMETER_BOT_ZN_4 ZN ZONE AIR NODE,Air,0
 Node,236,PERIMETER_MID_ZN_1 ZN ZONE AIR NODE,Air,0
 Node,237,PERIMETER_MID_ZN_2 ZN ZONE AIR NODE,Air,0
 Node,238,PERIMETER_MID_ZN_3 ZN ZONE AIR NODE,Air,0
 Node,239,PERIMETER_MID_ZN_4 ZN ZONE AIR NODE,Air,0
 Node,240,PERIMETER_TOP_ZN_1 ZN ZONE AIR NODE,Air,0
 Node,241,PERIMETER_TOP_ZN_2 ZN ZONE AIR NODE,Air,0
 Node,242,PERIMETER_TOP_ZN_3 ZN ZONE AIR NODE,Air,0
 Node,243,PERIMETER_TOP_ZN_4 ZN ZONE AIR NODE,Air,0
 Node,244,15 ZONE DOAS DEMAND OUTLET NODE,Air,2
 Node,245,CORE_BOTTOM ZN FCU OA NODE,Air,1
 Node,246,CORE_MID ZN FCU OA NODE,Air,1
 Node,247,CORE_TOP ZN FCU OA NODE,Air,1
 Node,248,PERIMETER_BOT_ZN_1 ZN FCU OA NODE,Air,1
 Node,249,PERIMETER_BOT_ZN_2 ZN FCU OA NODE,Air,1
 Node,250,PERIMETER_BOT_ZN_3 ZN FCU OA NODE,Air,1
 Node,251,PERIMETER_BOT_ZN_4 ZN FCU OA NODE,Air,1
 Node,252,PERIMETER_MID_ZN_1 ZN FCU OA NODE,Air,1
 Node,253,PERIMETER_MID_ZN_2 ZN FCU OA NODE,Air,1
 Node,254,PERIMETER_MID_ZN_3 ZN FCU OA NODE,Air,1
 Node,255,PERIMETER_MID_ZN_4 ZN FCU OA NODE,Air,1
 Node,256,PERIMETER_TOP_ZN_1 ZN FCU OA NODE,Air,1
 Node,257,PERIMETER_TOP_ZN_2 ZN FCU OA NODE,Air,1
 Node,258,PERIMETER_TOP_ZN_3 ZN FCU OA NODE,Air,1
 Node,259,PERIMETER_TOP_ZN_4 ZN FCU OA NODE,Air,1
 Node,260,15 ZONE DOAS OUTDOOR AIR NODE,Air,2
 Node,261,MODEL OUTDOOR AIR NODE,Air,0
 Node,262,15 ZONE DOAS HEAT EXCHANGER PRIMARY OUTLET AIR NODE,Air,2
 Node,263,PERIMETER_TOP_ZN_3 ZN AIR TERMINAL INLET AIR NODE,Air,1
 Node,264,PERIMETER_TOP_ZN_2 ZN AIR TERMINAL INLET AIR NODE,Air,1
 Node,265,PERIMETER_MID_ZN_4 ZN AIR TERMINAL INLET AIR NODE,Air,1
 Node,266,PERIMETER_BOT_ZN_3 ZN AIR TERMINAL INLET AIR NODE,Air,1
 Node,267,PERIMETER_MID_ZN_3 ZN AIR TERMINAL INLET AIR NODE,Air,1
 Node,268,PERIMETER_BOT_ZN_2 ZN AIR TERMINAL INLET AIR NODE,Air,1
 Node,269,PERIMETER_MID_ZN_1 ZN AIR TERMINAL INLET AIR NODE,Air,1
 Node,270,CORE_MID ZN AIR TERMINAL INLET AIR NODE,Air,1
 Node,271,PERIMETER_BOT_ZN_1 ZN AIR TERMINAL INLET AIR NODE,Air,1
 Node,272,PERIMETER_TOP_ZN_1 ZN AIR TERMINAL INLET AIR NODE,Air,1
 Node,273,PERIMETER_MID_ZN_2 ZN AIR TERMINAL INLET AIR NODE,Air,1
 Node,274,PERIMETER_BOT_ZN_4 ZN AIR TERMINAL INLET AIR NODE,Air,1
 Node,275,CORE_TOP ZN AIR TERMINAL INLET AIR NODE,Air,1
 Node,276,PERIMETER_TOP_ZN_4 ZN AIR TERMINAL INLET AIR NODE,Air,1
 Node,277,CORE_BOTTOM ZN AIR TERMINAL INLET AIR NODE,Air,1
 Node,278,CORE_BOTTOM ZN FCU MIXED AIR NODE,Air,1
 Node,279,CORE_BOTTOM ZN FCU RELIEF AIR NODE,Air,0
 Node,280,CORE_MID ZN FCU MIXED AIR NODE,Air,1
 Node,281,CORE_MID ZN FCU RELIEF AIR NODE,Air,0
 Node,282,CORE_TOP ZN FCU MIXED AIR NODE,Air,1
 Node,283,CORE_TOP ZN FCU RELIEF AIR NODE,Air,0
 Node,284,PERIMETER_BOT_ZN_1 ZN FCU MIXED AIR NODE,Air,1
 Node,285,PERIMETER_BOT_ZN_1 ZN FCU RELIEF AIR NODE,Air,0
 Node,286,PERIMETER_BOT_ZN_2 ZN FCU MIXED AIR NODE,Air,1
 Node,287,PERIMETER_BOT_ZN_2 ZN FCU RELIEF AIR NODE,Air,0
 Node,288,PERIMETER_BOT_ZN_3 ZN FCU MIXED AIR NODE,Air,1
 Node,289,PERIMETER_BOT_ZN_3 ZN FCU RELIEF AIR NODE,Air,0
 Node,290,PERIMETER_BOT_ZN_4 ZN FCU MIXED AIR NODE,Air,1
 Node,291,PERIMETER_BOT_ZN_4 ZN FCU RELIEF AIR NODE,Air,0
 Node,292,PERIMETER_MID_ZN_1 ZN FCU MIXED AIR NODE,Air,1
 Node,293,PERIMETER_MID_ZN_1 ZN FCU RELIEF AIR NODE,Air,0
 Node,294,PERIMETER_MID_ZN_2 ZN FCU MIXED AIR NODE,Air,1
 Node,295,PERIMETER_MID_ZN_2 ZN FCU RELIEF AIR NODE,Air,0
 Node,296,PERIMETER_MID_ZN_3 ZN FCU MIXED AIR NODE,Air,1
 Node,297,PERIMETER_MID_ZN_3 ZN FCU RELIEF AIR NODE,Air,0
 Node,298,PERIMETER_MID_ZN_4 ZN FCU MIXED AIR NODE,Air,1
 Node,299,PERIMETER_MID_ZN_4 ZN FCU RELIEF AIR NODE,Air,0
 Node,300,PERIMETER_TOP_ZN_1 ZN FCU MIXED AIR NODE,Air,1
 Node,301,PERIMETER_TOP_ZN_1 ZN FCU RELIEF AIR NODE,Air,0
 Node,302,PERIMETER_TOP_ZN_2 ZN FCU MIXED AIR NODE,Air,1
 Node,303,PERIMETER_TOP_ZN_2 ZN FCU RELIEF AIR NODE,Air,0
 Node,304,PERIMETER_TOP_ZN_3 ZN FCU MIXED AIR NODE,Air,1
 Node,305,PERIMETER_TOP_ZN_3 ZN FCU RELIEF AIR NODE,Air,0
 Node,306,PERIMETER_TOP_ZN_4 ZN FCU MIXED AIR NODE,Air,1
 Node,307,PERIMETER_TOP_ZN_4 ZN FCU RELIEF AIR NODE,Air,0
 Node,308,15 ZONE DOAS HEAT EXCHANGER SECONDARY INLET AIR NODE,Air,2
 Node,309,CORE_BOTTOM ZN FCU COOLING COIL OUTLET NODE,Air,1
 Node,310,CORE_MID ZN FCU COOLING COIL OUTLET NODE,Air,1
 Node,311,CORE_TOP ZN FCU COOLING COIL OUTLET NODE,Air,1
 Node,312,PERIMETER_BOT_ZN_1 ZN FCU COOLING COIL OUTLET NODE,Air,1
 Node,313,PERIMETER_BOT_ZN_2 ZN FCU COOLING COIL OUTLET NODE,Air,1
 Node,314,PERIMETER_BOT_ZN_3 ZN FCU COOLING COIL OUTLET NODE,Air,1
 Node,315,PERIMETER_BOT_ZN_4 ZN FCU COOLING COIL OUTLET NODE,Air,1
 Node,316,PERIMETER_MID_ZN_1 ZN FCU COOLING COIL OUTLET NODE,Air,1
 Node,317,PERIMETER_MID_ZN_2 ZN FCU COOLING COIL OUTLET NODE,Air,1
 Node,318,PERIMETER_MID_ZN_3 ZN FCU COOLING COIL OUTLET NODE,Air,1
 Node,319,PERIMETER_MID_ZN_4 ZN FCU COOLING COIL OUTLET NODE,Air,1
 Node,320,PERIMETER_TOP_ZN_1 ZN FCU COOLING COIL OUTLET NODE,Air,1
 Node,321,PERIMETER_TOP_ZN_2 ZN FCU COOLING COIL OUTLET NODE,Air,1
 Node,322,PERIMETER_TOP_ZN_3 ZN FCU COOLING COIL OUTLET NODE,Air,1
 Node,323,PERIMETER_TOP_ZN_4 ZN FCU COOLING COIL OUTLET NODE,Air,1
 Node,324,CORE_BOTTOM ZN FCU FAN OUTLET NODE,Air,1
 Node,325,CORE_MID ZN FCU FAN OUTLET NODE,Air,1
 Node,326,CORE_TOP ZN FCU FAN OUTLET NODE,Air,1
 Node,327,PERIMETER_BOT_ZN_1 ZN FCU FAN OUTLET NODE,Air,1
 Node,328,PERIMETER_BOT_ZN_2 ZN FCU FAN OUTLET NODE,Air,1
 Node,329,PERIMETER_BOT_ZN_3 ZN FCU FAN OUTLET NODE,Air,1
 Node,330,PERIMETER_BOT_ZN_4 ZN FCU FAN OUTLET NODE,Air,1
 Node,331,PERIMETER_MID_ZN_1 ZN FCU FAN OUTLET NODE,Air,1
 Node,332,PERIMETER_MID_ZN_2 ZN FCU FAN OUTLET NODE,Air,1
 Node,333,PERIMETER_MID_ZN_3 ZN FCU FAN OUTLET NODE,Air,1
 Node,334,PERIMETER_MID_ZN_4 ZN FCU FAN OUTLET NODE,Air,1
 Node,335,PERIMETER_TOP_ZN_1 ZN FCU FAN OUTLET NODE,Air,1
 Node,336,PERIMETER_TOP_ZN_2 ZN FCU FAN OUTLET NODE,Air,1
 Node,337,PERIMETER_TOP_ZN_3 ZN FCU FAN OUTLET NODE,Air,1
 Node,338,PERIMETER_TOP_ZN_4 ZN FCU FAN OUTLET NODE,Air,1
 Node,339,15 ZONE DOAS RELIEF AIR NODE,Air,0
! ===============================================================
! Suspicious nodes have 0 references.  It is normal for some nodes, however.
! Listing nodes with 0 references (culled from previous list):
! <Suspicious Node>,<NodeNumber>,<Node Name>,<Node Fluid Type>,<# Times Node Referenced After Definition>
 Suspicious Node,229,CORE_BOTTOM ZN ZONE AIR NODE,Air,0
 Suspicious Node,230,CORE_MID ZN ZONE AIR NODE,Air,0
 Suspicious Node,231,CORE_TOP ZN ZONE AIR NODE,Air,0
 Suspicious Node,232,PERIMETER_BOT_ZN_1 ZN ZONE AIR NODE,Air,0
 Suspicious Node,233,PERIMETER_BOT_ZN_2 ZN ZONE AIR NODE,Air,0
 Suspicious Node,234,PERIMETER_BOT_ZN_3 ZN ZONE AIR NODE,Air,0
 Suspicious Node,235,PERIMETER_BOT_ZN_4 ZN ZONE AIR NODE,Air,0
 Suspicious Node,236,PERIMETER_MID_ZN_1 ZN ZONE AIR NODE,Air,0
 Suspicious Node,237,PERIMETER_MID_ZN_2 ZN ZONE AIR NODE,Air,0
 Suspicious Node,238,PERIMETER_MID_ZN_3 ZN ZONE AIR NODE,Air,0
 Suspicious Node,239,PERIMETER_MID_ZN_4 ZN ZONE AIR NODE,Air,0
 Suspicious Node,240,PERIMETER_TOP_ZN_1 ZN ZONE AIR NODE,Air,0
 Suspicious Node,241,PERIMETER_TOP_ZN_2 ZN ZONE AIR NODE,Air,0
 Suspicious Node,242,PERIMETER_TOP_ZN_3 ZN ZONE AIR NODE,Air,0
 Suspicious Node,243,PERIMETER_TOP_ZN_4 ZN ZONE AIR NODE,Air,0
 Suspicious Node,261,MODEL OUTDOOR AIR NODE,Air,0
 Suspicious Node,279,CORE_BOTTOM ZN FCU RELIEF AIR NODE,Air,0
 Suspicious Node,281,CORE_MID ZN FCU RELIEF AIR NODE,Air,0
 Suspicious Node,283,CORE_TOP ZN FCU RELIEF AIR NODE,Air,0
 Suspicious Node,285,PERIMETER_BOT_ZN_1 ZN FCU RELIEF AIR NODE,Air,0
 Suspicious Node,287,PERIMETER_BOT_ZN_2 ZN FCU RELIEF AIR NODE,Air,0
 Suspicious Node,289,PERIMETER_BOT_ZN_3 ZN FCU RELIEF AIR NODE,Air,0
 Suspicious Node,291,PERIMETER_BOT_ZN_4 ZN FCU RELIEF AIR NODE,Air,0
 Suspicious Node,293,PERIMETER_MID_ZN_1 ZN FCU RELIEF AIR NODE,Air,0
 Suspicious Node,295,PERIMETER_MID_ZN_2 ZN FCU RELIEF AIR NODE,Air,0
 Suspicious Node,297,PERIMETER_MID_ZN_3 ZN FCU RELIEF AIR NODE,Air,0
 Suspicious Node,299,PERIMETER_MID_ZN_4 ZN FCU RELIEF AIR NODE,Air,0
 Suspicious Node,301,PERIMETER_TOP_ZN_1 ZN FCU RELIEF AIR NODE,Air,0
 Suspicious Node,303,PERIMETER_TOP_ZN_2 ZN FCU RELIEF AIR NODE,Air,0
 Suspicious Node,305,PERIMETER_TOP_ZN_3 ZN FCU RELIEF AIR NODE,Air,0
 Suspicious Node,307,PERIMETER_TOP_ZN_4 ZN FCU RELIEF AIR NODE,Air,0
 Suspicious Node,339,15 ZONE DOAS RELIEF AIR NODE,Air,0
! ===============================================================
! <#Branch Lists>,<Number of Branch Lists>
 #Branch Lists,9
! <Branch List>,<Branch List Count>,<Branch List Name>,<Loop Name>,<Loop Type>,<Number of Branches>
! <Branch>,<Branch Count>,<Branch Name>,<Loop Name>,<Loop Type>,<Branch Inlet Node Name>,<Branch Outlet Node Name>
 Branch List,1,15 ZONE DOAS SUPPLY BRANCHES,15 ZONE DOAS,Air,1
   Branch,1,15 ZONE DOAS MAIN BRANCH,15 ZONE DOAS,Air,15 ZONE DOAS SUPPLY INLET NODE,15 ZONE DOAS SUPPLY OUTLET NODE
 Branch List,2,CHILLED WATER LOOP SUPPLY BRANCHES,CHILLED WATER LOOP,Plant Supply,4
   Branch,1,CHILLED WATER LOOP SUPPLY INLET BRANCH,CHILLED WATER LOOP,Plant Supply,CHILLED WATER LOOP SUPPLY INLET NODE,CHILLED WATER LOOP PRIMARY PUMP OUTLET WATER NODE
   Branch,2,CHILLED WATER LOOP SUPPLY BRANCH 1,CHILLED WATER LOOP,Plant Supply,NREL ZNE READY 2017 WATERCOOLED  ROTARY SCREW CHILLER 0 SUPPLY INLET WATER NODE,NREL ZNE READY 2017 WATERCOOLED  ROTARY SCREW CHILLER 0 SUPPLY OUTLET WATER NODE
   Branch,3,CHILLED WATER LOOP SUPPLY BRANCH 2,CHILLED WATER LOOP,Plant Supply,CHILLED WATER LOOP CHILLER BYPASS INLET WATER NODE,CHILLED WATER LOOP CHILLER BYPASS OUTLET WATER NODE
   Branch,4,CHILLED WATER LOOP SUPPLY OUTLET BRANCH,CHILLED WATER LOOP,Plant Supply,CHILLED WATER LOOP SUPPLY OUTLET INLET WATER NODE,CHILLED WATER LOOP SUPPLY OUTLET NODE
 Branch List,3,CHILLED WATER LOOP DEMAND BRANCHES,CHILLED WATER LOOP,Plant Demand,20
   Branch,1,CHILLED WATER LOOP DEMAND INLET BRANCH,CHILLED WATER LOOP,Plant Demand,CHILLED WATER LOOP DEMAND INLET NODE,CHILLED WATER LOOP SECONDARY PUMP OUTLET WATER NODE
   Branch,2,CHILLED WATER LOOP DEMAND BRANCH 1,CHILLED WATER LOOP,Plant Demand,CHILLED WATER LOOP COIL BYPASS INLET WATER NODE,CHILLED WATER LOOP COIL BYPASS OUTLET WATER NODE
   Branch,3,CHILLED WATER LOOP DEMAND BRANCH 2,CHILLED WATER LOOP,Plant Demand,15 ZONE DOAS CLG COIL INLET WATER NODE,15 ZONE DOAS CLG COIL OUTLET WATER NODE
   Branch,4,CHILLED WATER LOOP DEMAND BRANCH 3,CHILLED WATER LOOP,Plant Demand,PERIMETER_TOP_ZN_3 ZN FCU COOLING COIL INLET WATER NODE,PERIMETER_TOP_ZN_3 ZN FCU COOLING COIL OUTLET WATER NODE
   Branch,5,CHILLED WATER LOOP DEMAND BRANCH 4,CHILLED WATER LOOP,Plant Demand,PERIMETER_TOP_ZN_2 ZN FCU COOLING COIL INLET WATER NODE,PERIMETER_TOP_ZN_2 ZN FCU COOLING COIL OUTLET WATER NODE
   Branch,6,CHILLED WATER LOOP DEMAND BRANCH 5,CHILLED WATER LOOP,Plant Demand,PERIMETER_MID_ZN_4 ZN FCU COOLING COIL INLET WATER NODE,PERIMETER_MID_ZN_4 ZN FCU COOLING COIL OUTLET WATER NODE
   Branch,7,CHILLED WATER LOOP DEMAND BRANCH 6,CHILLED WATER LOOP,Plant Demand,PERIMETER_BOT_ZN_3 ZN FCU COOLING COIL INLET WATER NODE,PERIMETER_BOT_ZN_3 ZN FCU COOLING COIL OUTLET WATER NODE
   Branch,8,CHILLED WATER LOOP DEMAND BRANCH 7,CHILLED WATER LOOP,Plant Demand,PERIMETER_MID_ZN_3 ZN FCU COOLING COIL INLET WATER NODE,PERIMETER_MID_ZN_3 ZN FCU COOLING COIL OUTLET WATER NODE
   Branch,9,CHILLED WATER LOOP DEMAND BRANCH 8,CHILLED WATER LOOP,Plant Demand,PERIMETER_BOT_ZN_2 ZN FCU COOLING COIL INLET WATER NODE,PERIMETER_BOT_ZN_2 ZN FCU COOLING COIL OUTLET WATER NODE
   Branch,10,CHILLED WATER LOOP DEMAND BRANCH 9,CHILLED WATER LOOP,Plant Demand,PERIMETER_MID_ZN_1 ZN FCU COOLING COIL INLET WATER NODE,PERIMETER_MID_ZN_1 ZN FCU COOLING COIL OUTLET WATER NODE
   Branch,11,CHILLED WATER LOOP DEMAND BRANCH 10,CHILLED WATER LOOP,Plant Demand,CORE_MID ZN FCU COOLING COIL INLET WATER NODE,CORE_MID ZN FCU COOLING COIL OUTLET WATER NODE
   Branch,12,CHILLED WATER LOOP DEMAND BRANCH 11,CHILLED WATER LOOP,Plant Demand,PERIMETER_BOT_ZN_1 ZN FCU COOLING COIL INLET WATER NODE,PERIMETER_BOT_ZN_1 ZN FCU COOLING COIL OUTLET WATER NODE
   Branch,13,CHILLED WATER LOOP DEMAND BRANCH 12,CHILLED WATER LOOP,Plant Demand,PERIMETER_TOP_ZN_1 ZN FCU COOLING COIL INLET WATER NODE,PERIMETER_TOP_ZN_1 ZN FCU COOLING COIL OUTLET WATER NODE
   Branch,14,CHILLED WATER LOOP DEMAND BRANCH 13,CHILLED WATER LOOP,Plant Demand,PERIMETER_MID_ZN_2 ZN FCU COOLING COIL INLET WATER NODE,PERIMETER_MID_ZN_2 ZN FCU COOLING COIL OUTLET WATER NODE
   Branch,15,CHILLED WATER LOOP DEMAND BRANCH 14,CHILLED WATER LOOP,Plant Demand,PERIMETER_BOT_ZN_4 ZN FCU COOLING COIL INLET WATER NODE,PERIMETER_BOT_ZN_4 ZN FCU COOLING COIL OUTLET WATER NODE
   Branch,16,CHILLED WATER LOOP DEMAND BRANCH 15,CHILLED WATER LOOP,Plant Demand,CORE_TOP ZN FCU COOLING COIL INLET WATER NODE,CORE_TOP ZN FCU COOLING COIL OUTLET WATER NODE
   Branch,17,CHILLED WATER LOOP DEMAND BRANCH 16,CHILLED WATER LOOP,Plant Demand,PERIMETER_TOP_ZN_4 ZN FCU COOLING COIL INLET WATER NODE,PERIMETER_TOP_ZN_4 ZN FCU COOLING COIL OUTLET WATER NODE
   Branch,18,CHILLED WATER LOOP DEMAND BRANCH 17,CHILLED WATER LOOP,Plant Demand,CORE_BOTTOM ZN FCU COOLING COIL INLET WATER NODE,CORE_BOTTOM ZN FCU COOLING COIL OUTLET WATER NODE
   Branch,19,CHILLED WATER LOOP DEMAND BYPASS BRANCH,CHILLED WATER LOOP,Plant Demand,CHILLED WATER LOOP DEMAND BYPASS PIPE INLET NODE,CHILLED WATER LOOP DEMAND BYPASS PIPE OUTLET NODE
   Branch,20,CHILLED WATER LOOP DEMAND OUTLET BRANCH,CHILLED WATER LOOP,Plant Demand,CHILLED WATER LOOP DEMAND OUTLET INLET WATER NODE,CHILLED WATER LOOP DEMAND OUTLET NODE
 Branch List,4,CONDENSER WATER LOOP SUPPLY BRANCHES,CONDENSER WATER LOOP,Plant Supply,4
   Branch,1,CONDENSER WATER LOOP SUPPLY INLET BRANCH,CONDENSER WATER LOOP,Plant Supply,CONDENSER WATER LOOP SUPPLY INLET NODE,CONDENSER WATER LOOP CONSTANT PUMP OUTLET WATER NODE
   Branch,2,CONDENSER WATER LOOP SUPPLY BRANCH 1,CONDENSER WATER LOOP,Plant Supply,PROPELLER OR AXIAL VARIABLE SPEED FAN OPEN COOLING TOWER INLET WATER NODE,PROPELLER OR AXIAL VARIABLE SPEED FAN OPEN COOLING TOWER OUTLET WATER NODE
   Branch,3,CONDENSER WATER LOOP SUPPLY BRANCH 2,CONDENSER WATER LOOP,Plant Supply,CONDENSER WATER LOOP COOLING TOWER BYPASS INLET WATER NODE,CONDENSER WATER LOOP COOLING TOWER BYPASS OUTLET WATER NODE
   Branch,4,CONDENSER WATER LOOP SUPPLY OUTLET BRANCH,CONDENSER WATER LOOP,Plant Supply,CONDENSER WATER LOOP SUPPLY OUTLET INLET WATER NODE,CONDENSER WATER LOOP SUPPLY OUTLET NODE
 Branch List,5,CONDENSER WATER LOOP DEMAND BRANCHES,CONDENSER WATER LOOP,Plant Demand,5
   Branch,1,CONDENSER WATER LOOP DEMAND INLET BRANCH,CONDENSER WATER LOOP,Plant Demand,CONDENSER WATER LOOP DEMAND INLET NODE,CONDENSER WATER LOOP DEMAND INLET OUTLET WATER NODE
   Branch,2,CONDENSER WATER LOOP DEMAND BRANCH 1,CONDENSER WATER LOOP,Plant Demand,CONDENSER WATER LOOP CHILLER BYPASS INLET WATER NODE,CONDENSER WATER LOOP CHILLER BYPASS OUTLET WATER NODE
   Branch,3,CONDENSER WATER LOOP DEMAND BRANCH 2,CONDENSER WATER LOOP,Plant Demand,NREL ZNE READY 2017 WATERCOOLED  ROTARY SCREW CHILLER 0 DEMAND INLET WATER NODE,NREL ZNE READY 2017 WATERCOOLED  ROTARY SCREW CHILLER 0 DEMAND OUTLET WATER NODE
   Branch,4,CONDENSER WATER LOOP DEMAND BYPASS BRANCH,CONDENSER WATER LOOP,Plant Demand,CONDENSER WATER LOOP DEMAND BYPASS PIPE INLET NODE,CONDENSER WATER LOOP DEMAND BYPASS PIPE OUTLET NODE
   Branch,5,CONDENSER WATER LOOP DEMAND OUTLET BRANCH,CONDENSER WATER LOOP,Plant Demand,CONDENSER WATER LOOP DEMAND OUTLET INLET WATER NODE,CONDENSER WATER LOOP DEMAND OUTLET NODE
 Branch List,6,HOT WATER LOOP SUPPLY BRANCHES,HOT WATER LOOP,Plant Supply,4
   Branch,1,HOT WATER LOOP SUPPLY INLET BRANCH,HOT WATER LOOP,Plant Supply,HOT WATER LOOP SUPPLY INLET NODE,HOT WATER LOOP PUMP OUTLET WATER NODE
   Branch,2,HOT WATER LOOP SUPPLY BRANCH 1,HOT WATER LOOP,Plant Supply,BOILER INLET WATER NODE,BOILER OUTLET WATER NODE
   Branch,3,HOT WATER LOOP SUPPLY BRANCH 2,HOT WATER LOOP,Plant Supply,HOT WATER LOOP SUPPLY EQUIPMENT BYPASS INLET WATER NODE,HOT WATER LOOP SUPPLY EQUIPMENT BYPASS OUTLET WATER NODE
   Branch,4,HOT WATER LOOP SUPPLY OUTLET BRANCH,HOT WATER LOOP,Plant Supply,HOT WATER LOOP SUPPLY OUTLET INLET WATER NODE,HOT WATER LOOP SUPPLY OUTLET NODE
 Branch List,7,HOT WATER LOOP DEMAND BRANCHES,HOT WATER LOOP,Plant Demand,20
   Branch,1,HOT WATER LOOP DEMAND INLET BRANCH,HOT WATER LOOP,Plant Demand,HOT WATER LOOP DEMAND INLET NODE,HOT WATER LOOP DEMAND INLET OUTLET WATER NODE
   Branch,2,HOT WATER LOOP DEMAND BRANCH 1,HOT WATER LOOP,Plant Demand,HOT WATER LOOP COIL BYPASS INLET WATER NODE,HOT WATER LOOP COIL BYPASS OUTLET WATER NODE
   Branch,3,HOT WATER LOOP DEMAND BRANCH 2,HOT WATER LOOP,Plant Demand,15 ZONE DOAS HTG COIL INLET WATER NODE,15 ZONE DOAS HTG COIL OUTLET WATER NODE
   Branch,4,HOT WATER LOOP DEMAND BRANCH 3,HOT WATER LOOP,Plant Demand,PERIMETER_TOP_ZN_3 ZN FCU HEATING COIL INLET WATER NODE,PERIMETER_TOP_ZN_3 ZN FCU HEATING COIL OUTLET WATER NODE
   Branch,5,HOT WATER LOOP DEMAND BRANCH 4,HOT WATER LOOP,Plant Demand,PERIMETER_TOP_ZN_2 ZN FCU HEATING COIL INLET WATER NODE,PERIMETER_TOP_ZN_2 ZN FCU HEATING COIL OUTLET WATER NODE
   Branch,6,HOT WATER LOOP DEMAND BRANCH 5,HOT WATER LOOP,Plant Demand,PERIMETER_MID_ZN_4 ZN FCU HEATING COIL INLET WATER NODE,PERIMETER_MID_ZN_4 ZN FCU HEATING COIL OUTLET WATER NODE
   Branch,7,HOT WATER LOOP DEMAND BRANCH 6,HOT WATER LOOP,Plant Demand,PERIMETER_BOT_ZN_3 ZN FCU HEATING COIL INLET WATER NODE,PERIMETER_BOT_ZN_3 ZN FCU HEATING COIL OUTLET WATER NODE
   Branch,8,HOT WATER LOOP DEMAND BRANCH 7,HOT WATER LOOP,Plant Demand,PERIMETER_MID_ZN_3 ZN FCU HEATING COIL INLET WATER NODE,PERIMETER_MID_ZN_3 ZN FCU HEATING COIL OUTLET WATER NODE
   Branch,9,HOT WATER LOOP DEMAND BRANCH 8,HOT WATER LOOP,Plant Demand,PERIMETER_BOT_ZN_2 ZN FCU HEATING COIL INLET WATER NODE,PERIMETER_BOT_ZN_2 ZN FCU HEATING COIL OUTLET WATER NODE
   Branch,10,HOT WATER LOOP DEMAND BRANCH 9,HOT WATER LOOP,Plant Demand,PERIMETER_MID_ZN_1 ZN FCU HEATING COIL INLET WATER NODE,PERIMETER_MID_ZN_1 ZN FCU HEATING COIL OUTLET WATER NODE
   Branch,11,HOT WATER LOOP DEMAND BRANCH 10,HOT WATER LOOP,Plant Demand,CORE_MID ZN FCU HEATING COIL INLET WATER NODE,CORE_MID ZN FCU HEATING COIL OUTLET WATER NODE
   Branch,12,HOT WATER LOOP DEMAND BRANCH 11,HOT WATER LOOP,Plant Demand,PERIMETER_BOT_ZN_1 ZN FCU HEATING COIL INLET WATER NODE,PERIMETER_BOT_ZN_1 ZN FCU HEATING COIL OUTLET WATER NODE
   Branch,13,HOT WATER LOOP DEMAND BRANCH 12,HOT WATER LOOP,Plant Demand,PERIMETER_TOP_ZN_1 ZN FCU HEATING COIL INLET WATER NODE,PERIMETER_TOP_ZN_1 ZN FCU HEATING COIL OUTLET WATER NODE
   Branch,14,HOT WATER LOOP DEMAND BRANCH 13,HOT WATER LOOP,Plant Demand,PERIMETER_MID_ZN_2 ZN FCU HEATING COIL INLET WATER NODE,PERIMETER_MID_ZN_2 ZN FCU HEATING COIL OUTLET WATER NODE
   Branch,15,HOT WATER LOOP DEMAND BRANCH 14,HOT WATER LOOP,Plant Demand,PERIMETER_BOT_ZN_4 ZN FCU HEATING COIL INLET WATER NODE,PERIMETER_BOT_ZN_4 ZN FCU HEATING COIL OUTLET WATER NODE
   Branch,16,HOT WATER LOOP DEMAND BRANCH 15,HOT WATER LOOP,Plant Demand,CORE_TOP ZN FCU HEATING COIL INLET WATER NODE,CORE_TOP ZN FCU HEATING COIL OUTLET WATER NODE
   Branch,17,HOT WATER LOOP DEMAND BRANCH 16,HOT WATER LOOP,Plant Demand,PERIMETER_TOP_ZN_4 ZN FCU HEATING COIL INLET WATER NODE,PERIMETER_TOP_ZN_4 ZN FCU HEATING COIL OUTLET WATER NODE
   Branch,18,HOT WATER LOOP DEMAND BRANCH 17,HOT WATER LOOP,Plant Demand,CORE_BOTTOM ZN FCU HEATING COIL INLET WATER NODE,CORE_BOTTOM ZN FCU HEATING COIL OUTLET WATER NODE
   Branch,19,HOT WATER LOOP DEMAND BYPASS BRANCH,HOT WATER LOOP,Plant Demand,HOT WATER LOOP DEMAND BYPASS PIPE INLET NODE,HOT WATER LOOP DEMAND BYPASS PIPE OUTLET NODE
   Branch,20,HOT WATER LOOP DEMAND OUTLET BRANCH,HOT WATER LOOP,Plant Demand,HOT WATER LOOP DEMAND OUTLET INLET WATER NODE,HOT WATER LOOP DEMAND OUTLET NODE
 Branch List,8,MAIN SERVICE WATER LOOP SUPPLY BRANCHES,MAIN SERVICE WATER LOOP,Plant Supply,4
   Branch,1,MAIN SERVICE WATER LOOP SUPPLY INLET BRANCH,MAIN SERVICE WATER LOOP,Plant Supply,MAIN SERVICE WATER LOOP SUPPLY INLET NODE,SERVICE WATER LOOP PUMP OUTLET WATER NODE
   Branch,2,MAIN SERVICE WATER LOOP SUPPLY BRANCH 1,MAIN SERVICE WATER LOOP,Plant Supply,100GAL NATURAL GAS WATER HEATER - 100KBTU/HR 0.802 THERM EFF SUPPLY INLET WATER NODE,100GAL NATURAL GAS WATER HEATER - 100KBTU/HR 0.802 THERM EFF SUPPLY OUTLET WATER NODE
   Branch,3,MAIN SERVICE WATER LOOP SUPPLY BRANCH 2,MAIN SERVICE WATER LOOP,Plant Supply,PIPE ADIABATIC 1 INLET WATER NODE,PIPE ADIABATIC 1 OUTLET WATER NODE
   Branch,4,MAIN SERVICE WATER LOOP SUPPLY OUTLET BRANCH,MAIN SERVICE WATER LOOP,Plant Supply,PIPE ADIABATIC 3 INLET WATER NODE,MAIN SERVICE WATER LOOP SUPPLY OUTLET NODE
 Branch List,9,MAIN SERVICE WATER LOOP DEMAND BRANCHES,MAIN SERVICE WATER LOOP,Plant Demand,19
   Branch,1,MAIN SERVICE WATER LOOP DEMAND INLET BRANCH,MAIN SERVICE WATER LOOP,Plant Demand,MAIN SERVICE WATER LOOP DEMAND INLET NODE,PIPE ADIABATIC 4 OUTLET WATER NODE
   Branch,2,MAIN SERVICE WATER LOOP DEMAND BRANCH 1,MAIN SERVICE WATER LOOP,Plant Demand,PIPE ADIABATIC 2 INLET WATER NODE,PIPE ADIABATIC 2 OUTLET WATER NODE
   Branch,3,MAIN SERVICE WATER LOOP DEMAND BRANCH 2,MAIN SERVICE WATER LOOP,Plant Demand,WATER USE CONNECTIONS 1 INLET WATER NODE,WATER USE CONNECTIONS 1 OUTLET WATER NODE
   Branch,4,MAIN SERVICE WATER LOOP DEMAND BRANCH 3,MAIN SERVICE WATER LOOP,Plant Demand,WATER USE CONNECTIONS 2 INLET WATER NODE,WATER USE CONNECTIONS 2 OUTLET WATER NODE
   Branch,5,MAIN SERVICE WATER LOOP DEMAND BRANCH 4,MAIN SERVICE WATER LOOP,Plant Demand,WATER USE CONNECTIONS 3 INLET WATER NODE,WATER USE CONNECTIONS 3 OUTLET WATER NODE
   Branch,6,MAIN SERVICE WATER LOOP DEMAND BRANCH 5,MAIN SERVICE WATER LOOP,Plant Demand,WATER USE CONNECTIONS 4 INLET WATER NODE,WATER USE CONNECTIONS 4 OUTLET WATER NODE
   Branch,7,MAIN SERVICE WATER LOOP DEMAND BRANCH 6,MAIN SERVICE WATER LOOP,Plant Demand,WATER USE CONNECTIONS 5 INLET WATER NODE,WATER USE CONNECTIONS 5 OUTLET WATER NODE
   Branch,8,MAIN SERVICE WATER LOOP DEMAND BRANCH 7,MAIN SERVICE WATER LOOP,Plant Demand,WATER USE CONNECTIONS 6 INLET WATER NODE,WATER USE CONNECTIONS 6 OUTLET WATER NODE
   Branch,9,MAIN SERVICE WATER LOOP DEMAND BRANCH 8,MAIN SERVICE WATER LOOP,Plant Demand,WATER USE CONNECTIONS 7 INLET WATER NODE,WATER USE CONNECTIONS 7 OUTLET WATER NODE
   Branch,10,MAIN SERVICE WATER LOOP DEMAND BRANCH 9,MAIN SERVICE WATER LOOP,Plant Demand,WATER USE CONNECTIONS 8 INLET WATER NODE,WATER USE CONNECTIONS 8 OUTLET WATER NODE
   Branch,11,MAIN SERVICE WATER LOOP DEMAND BRANCH 10,MAIN SERVICE WATER LOOP,Plant Demand,WATER USE CONNECTIONS 9 INLET WATER NODE,WATER USE CONNECTIONS 9 OUTLET WATER NODE
   Branch,12,MAIN SERVICE WATER LOOP DEMAND BRANCH 11,MAIN SERVICE WATER LOOP,Plant Demand,WATER USE CONNECTIONS 10 INLET WATER NODE,WATER USE CONNECTIONS 10 OUTLET WATER NODE
   Branch,13,MAIN SERVICE WATER LOOP DEMAND BRANCH 12,MAIN SERVICE WATER LOOP,Plant Demand,WATER USE CONNECTIONS 11 INLET WATER NODE,WATER USE CONNECTIONS 11 OUTLET WATER NODE
   Branch,14,MAIN SERVICE WATER LOOP DEMAND BRANCH 13,MAIN SERVICE WATER LOOP,Plant Demand,WATER USE CONNECTIONS 12 INLET WATER NODE,WATER USE CONNECTIONS 12 OUTLET WATER NODE
   Branch,15,MAIN SERVICE WATER LOOP DEMAND BRANCH 14,MAIN SERVICE WATER LOOP,Plant Demand,WATER USE CONNECTIONS 13 INLET WATER NODE,WATER USE CONNECTIONS 13 OUTLET WATER NODE
   Branch,16,MAIN SERVICE WATER LOOP DEMAND BRANCH 15,MAIN SERVICE WATER LOOP,Plant Demand,WATER USE CONNECTIONS 14 INLET WATER NODE,WATER USE CONNECTIONS 14 OUTLET WATER NODE
   Branch,17,MAIN SERVICE WATER LOOP DEMAND BRANCH 16,MAIN SERVICE WATER LOOP,Plant Demand,WATER USE CONNECTIONS 15 INLET WATER NODE,WATER USE CONNECTIONS 15 OUTLET WATER NODE
   Branch,18,MAIN SERVICE WATER LOOP DEMAND BYPASS BRANCH,MAIN SERVICE WATER LOOP,Plant Demand,MAIN SERVICE WATER LOOP DEMAND BYPASS PIPE INLET NODE,MAIN SERVICE WATER LOOP DEMAND BYPASS PIPE OUTLET NODE
   Branch,19,MAIN SERVICE WATER LOOP DEMAND OUTLET BRANCH,MAIN SERVICE WATER LOOP,Plant Demand,PIPE ADIABATIC 5 INLET WATER NODE,MAIN SERVICE WATER LOOP DEMAND OUTLET NODE
! ===============================================================
! <#Supply Air Paths>,<Number of Supply Air Paths>
 #Supply Air Paths,1
! <Supply Air Path>,<Supply Air Path Count>,<Supply Air Path Name>,<AirLoopHVAC Name>
! <#Components on Supply Air Path>,<Number of Components>
! <Supply Air Path Component>,<Component Count>,<Component Type>,<Component Name>,<AirLoopHVAC Name>
! <#Outlet Nodes on Supply Air Path Component>,<Number of Nodes>
! <Supply Air Path Component Nodes>,<Node Count>,<Component Type>,<Component Name>,<Inlet Node Name>,<Outlet Node Name>,<AirLoopHVAC Name>
 Supply Air Path,1,15 ZONE DOAS 15 ZONE DOAS DEMAND INLET NODE SUPPLY PATH,15 ZONE DOAS
   #Components on Supply Air Path,1
   Supply Air Path Component,1,AIRLOOPHVAC:ZONESPLITTER,AIR LOOP HVAC ZONE SPLITTER 1,15 ZONE DOAS
     #Outlet Nodes on Supply Air Path Component,15
     Supply Air Path Component Nodes,1,AIRLOOPHVAC:ZONESPLITTER,AIR LOOP HVAC ZONE SPLITTER 1,15 ZONE DOAS DEMAND INLET NODE,PERIMETER_TOP_ZN_3 ZN AIR TERMINAL INLET AIR NODE,15 ZONE DOAS
     Supply Air Path Component Nodes,2,AIRLOOPHVAC:ZONESPLITTER,AIR LOOP HVAC ZONE SPLITTER 1,15 ZONE DOAS DEMAND INLET NODE,PERIMETER_TOP_ZN_2 ZN AIR TERMINAL INLET AIR NODE,15 ZONE DOAS
     Supply Air Path Component Nodes,3,AIRLOOPHVAC:ZONESPLITTER,AIR LOOP HVAC ZONE SPLITTER 1,15 ZONE DOAS DEMAND INLET NODE,PERIMETER_MID_ZN_4 ZN AIR TERMINAL INLET AIR NODE,15 ZONE DOAS
     Supply Air Path Component Nodes,4,AIRLOOPHVAC:ZONESPLITTER,AIR LOOP HVAC ZONE SPLITTER 1,15 ZONE DOAS DEMAND INLET NODE,PERIMETER_BOT_ZN_3 ZN AIR TERMINAL INLET AIR NODE,15 ZONE DOAS
     Supply Air Path Component Nodes,5,AIRLOOPHVAC:ZONESPLITTER,AIR LOOP HVAC ZONE SPLITTER 1,15 ZONE DOAS DEMAND INLET NODE,PERIMETER_MID_ZN_3 ZN AIR TERMINAL INLET AIR NODE,15 ZONE DOAS
     Supply Air Path Component Nodes,6,AIRLOOPHVAC:ZONESPLITTER,AIR LOOP HVAC ZONE SPLITTER 1,15 ZONE DOAS DEMAND INLET NODE,PERIMETER_BOT_ZN_2 ZN AIR TERMINAL INLET AIR NODE,15 ZONE DOAS
     Supply Air Path Component Nodes,7,AIRLOOPHVAC:ZONESPLITTER,AIR LOOP HVAC ZONE SPLITTER 1,15 ZONE DOAS DEMAND INLET NODE,PERIMETER_MID_ZN_1 ZN AIR TERMINAL INLET AIR NODE,15 ZONE DOAS
     Supply Air Path Component Nodes,8,AIRLOOPHVAC:ZONESPLITTER,AIR LOOP HVAC ZONE SPLITTER 1,15 ZONE DOAS DEMAND INLET NODE,CORE_MID ZN AIR TERMINAL INLET AIR NODE,15 ZONE DOAS
     Supply Air Path Component Nodes,9,AIRLOOPHVAC:ZONESPLITTER,AIR LOOP HVAC ZONE SPLITTER 1,15 ZONE DOAS DEMAND INLET NODE,PERIMETER_BOT_ZN_1 ZN AIR TERMINAL INLET AIR NODE,15 ZONE DOAS
     Supply Air Path Component Nodes,10,AIRLOOPHVAC:ZONESPLITTER,AIR LOOP HVAC ZONE SPLITTER 1,15 ZONE DOAS DEMAND INLET NODE,PERIMETER_TOP_ZN_1 ZN AIR TERMINAL INLET AIR NODE,15 ZONE DOAS
     Supply Air Path Component Nodes,11,AIRLOOPHVAC:ZONESPLITTER,AIR LOOP HVAC ZONE SPLITTER 1,15 ZONE DOAS DEMAND INLET NODE,PERIMETER_MID_ZN_2 ZN AIR TERMINAL INLET AIR NODE,15 ZONE DOAS
     Supply Air Path Component Nodes,12,AIRLOOPHVAC:ZONESPLITTER,AIR LOOP HVAC ZONE SPLITTER 1,15 ZONE DOAS DEMAND INLET NODE,PERIMETER_BOT_ZN_4 ZN AIR TERMINAL INLET AIR NODE,15 ZONE DOAS
     Supply Air Path Component Nodes,13,AIRLOOPHVAC:ZONESPLITTER,AIR LOOP HVAC ZONE SPLITTER 1,15 ZONE DOAS DEMAND INLET NODE,CORE_TOP ZN AIR TERMINAL INLET AIR NODE,15 ZONE DOAS
     Supply Air Path Component Nodes,14,AIRLOOPHVAC:ZONESPLITTER,AIR LOOP HVAC ZONE SPLITTER 1,15 ZONE DOAS DEMAND INLET NODE,PERIMETER_TOP_ZN_4 ZN AIR TERMINAL INLET AIR NODE,15 ZONE DOAS
     Supply Air Path Component Nodes,15,AIRLOOPHVAC:ZONESPLITTER,AIR LOOP HVAC ZONE SPLITTER 1,15 ZONE DOAS DEMAND INLET NODE,CORE_BOTTOM ZN AIR TERMINAL INLET AIR NODE,15 ZONE DOAS
! <#Nodes on Supply Air Path>,<Number of Nodes>
! <Supply Air Path Node>,<Node Type>,<Node Count>,<Node Name>,<AirLoopHVAC Name>
#Nodes on Supply Air Path,16
   Supply Air Path Node,Inlet Node,1,15 ZONE DOAS DEMAND INLET NODE,15 ZONE DOAS
   Supply Air Path Node,Outlet Node,2,PERIMETER_TOP_ZN_3 ZN AIR TERMINAL INLET AIR NODE,15 ZONE DOAS
   Supply Air Path Node,Outlet Node,3,PERIMETER_TOP_ZN_2 ZN AIR TERMINAL INLET AIR NODE,15 ZONE DOAS
   Supply Air Path Node,Outlet Node,4,PERIMETER_MID_ZN_4 ZN AIR TERMINAL INLET AIR NODE,15 ZONE DOAS
   Supply Air Path Node,Outlet Node,5,PERIMETER_BOT_ZN_3 ZN AIR TERMINAL INLET AIR NODE,15 ZONE DOAS
   Supply Air Path Node,Outlet Node,6,PERIMETER_MID_ZN_3 ZN AIR TERMINAL INLET AIR NODE,15 ZONE DOAS
   Supply Air Path Node,Outlet Node,7,PERIMETER_BOT_ZN_2 ZN AIR TERMINAL INLET AIR NODE,15 ZONE DOAS
   Supply Air Path Node,Outlet Node,8,PERIMETER_MID_ZN_1 ZN AIR TERMINAL INLET AIR NODE,15 ZONE DOAS
   Supply Air Path Node,Outlet Node,9,CORE_MID ZN AIR TERMINAL INLET AIR NODE,15 ZONE DOAS
   Supply Air Path Node,Outlet Node,10,PERIMETER_BOT_ZN_1 ZN AIR TERMINAL INLET AIR NODE,15 ZONE DOAS
   Supply Air Path Node,Outlet Node,11,PERIMETER_TOP_ZN_1 ZN AIR TERMINAL INLET AIR NODE,15 ZONE DOAS
   Supply Air Path Node,Outlet Node,12,PERIMETER_MID_ZN_2 ZN AIR TERMINAL INLET AIR NODE,15 ZONE DOAS
   Supply Air Path Node,Outlet Node,13,PERIMETER_BOT_ZN_4 ZN AIR TERMINAL INLET AIR NODE,15 ZONE DOAS
   Supply Air Path Node,Outlet Node,14,CORE_TOP ZN AIR TERMINAL INLET AIR NODE,15 ZONE DOAS
   Supply Air Path Node,Outlet Node,15,PERIMETER_TOP_ZN_4 ZN AIR TERMINAL INLET AIR NODE,15 ZONE DOAS
   Supply Air Path Node,Outlet Node,16,CORE_BOTTOM ZN AIR TERMINAL INLET AIR NODE,15 ZONE DOAS
! ===============================================================
! <#Return Air Paths>,<Number of Return Air Paths>
 #Return Air Paths,1
! <Return Air Path>,<Return Air Path Count>,<Return Air Path Name>,<AirLoopHVAC Name>
! <#Components on Return Air Path>,<Number of Components>
! <Return Air Path Component>,<Component Count>,<Component Type>,<Component Name>,<AirLoopHVAC Name>
! <#Inlet Nodes on Return Air Path Component>,<Number of Nodes>
! <Return Air Path Component Nodes>,<Node Count>,<Component Type>,<Component Name>,<Inlet Node Name>,<Outlet Node Name>,<AirLoopHVAC Name>
 Return Air Path,1,15 ZONE DOAS RETURN PATH,15 ZONE DOAS
   #Components on Return Air Path,1
   Return Air Path Component,1,AIRLOOPHVAC:ZONEMIXER,AIR LOOP HVAC ZONE MIXER 1,15 ZONE DOAS
     #Inlet Nodes on Return Air Path Component,15
     Return Air Path Component Nodes,1,AIRLOOPHVAC:ZONEMIXER,AIR LOOP HVAC ZONE MIXER 1,PERIMETER_TOP_ZN_3 ZN RETURN AIR NODE,15 ZONE DOAS DEMAND OUTLET NODE,15 ZONE DOAS
     Return Air Path Component Nodes,2,AIRLOOPHVAC:ZONEMIXER,AIR LOOP HVAC ZONE MIXER 1,PERIMETER_TOP_ZN_2 ZN RETURN AIR NODE,15 ZONE DOAS DEMAND OUTLET NODE,15 ZONE DOAS
     Return Air Path Component Nodes,3,AIRLOOPHVAC:ZONEMIXER,AIR LOOP HVAC ZONE MIXER 1,PERIMETER_MID_ZN_4 ZN RETURN AIR NODE,15 ZONE DOAS DEMAND OUTLET NODE,15 ZONE DOAS
     Return Air Path Component Nodes,4,AIRLOOPHVAC:ZONEMIXER,AIR LOOP HVAC ZONE MIXER 1,PERIMETER_BOT_ZN_3 ZN RETURN AIR NODE,15 ZONE DOAS DEMAND OUTLET NODE,15 ZONE DOAS
     Return Air Path Component Nodes,5,AIRLOOPHVAC:ZONEMIXER,AIR LOOP HVAC ZONE MIXER 1,PERIMETER_MID_ZN_3 ZN RETURN AIR NODE,15 ZONE DOAS DEMAND OUTLET NODE,15 ZONE DOAS
     Return Air Path Component Nodes,6,AIRLOOPHVAC:ZONEMIXER,AIR LOOP HVAC ZONE MIXER 1,PERIMETER_BOT_ZN_2 ZN RETURN AIR NODE,15 ZONE DOAS DEMAND OUTLET NODE,15 ZONE DOAS
     Return Air Path Component Nodes,7,AIRLOOPHVAC:ZONEMIXER,AIR LOOP HVAC ZONE MIXER 1,PERIMETER_MID_ZN_1 ZN RETURN AIR NODE,15 ZONE DOAS DEMAND OUTLET NODE,15 ZONE DOAS
     Return Air Path Component Nodes,8,AIRLOOPHVAC:ZONEMIXER,AIR LOOP HVAC ZONE MIXER 1,CORE_MID ZN RETURN AIR NODE,15 ZONE DOAS DEMAND OUTLET NODE,15 ZONE DOAS
     Return Air Path Component Nodes,9,AIRLOOPHVAC:ZONEMIXER,AIR LOOP HVAC ZONE MIXER 1,PERIMETER_BOT_ZN_1 ZN RETURN AIR NODE,15 ZONE DOAS DEMAND OUTLET NODE,15 ZONE DOAS
     Return Air Path Component Nodes,10,AIRLOOPHVAC:ZONEMIXER,AIR LOOP HVAC ZONE MIXER 1,PERIMETER_TOP_ZN_1 ZN RETURN AIR NODE,15 ZONE DOAS DEMAND OUTLET NODE,15 ZONE DOAS
     Return Air Path Component Nodes,11,AIRLOOPHVAC:ZONEMIXER,AIR LOOP HVAC ZONE MIXER 1,PERIMETER_MID_ZN_2 ZN RETURN AIR NODE,15 ZONE DOAS DEMAND OUTLET NODE,15 ZONE DOAS
     Return Air Path Component Nodes,12,AIRLOOPHVAC:ZONEMIXER,AIR LOOP HVAC ZONE MIXER 1,PERIMETER_BOT_ZN_4 ZN RETURN AIR NODE,15 ZONE DOAS DEMAND OUTLET NODE,15 ZONE DOAS
     Return Air Path Component Nodes,13,AIRLOOPHVAC:ZONEMIXER,AIR LOOP HVAC ZONE MIXER 1,CORE_TOP ZN RETURN AIR NODE,15 ZONE DOAS DEMAND OUTLET NODE,15 ZONE DOAS
     Return Air Path Component Nodes,14,AIRLOOPHVAC:ZONEMIXER,AIR LOOP HVAC ZONE MIXER 1,PERIMETER_TOP_ZN_4 ZN RETURN AIR NODE,15 ZONE DOAS DEMAND OUTLET NODE,15 ZONE DOAS
     Return Air Path Component Nodes,15,AIRLOOPHVAC:ZONEMIXER,AIR LOOP HVAC ZONE MIXER 1,CORE_BOTTOM ZN RETURN AIR NODE,15 ZONE DOAS DEMAND OUTLET NODE,15 ZONE DOAS
! <#Nodes on Return Air Path>,<Number of Nodes>
! <Return Air Path Node>,<Node Type>,<Node Count>,<Node Name>,<AirLoopHVAC Name>
   #Nodes on Return Air Path,16
   Return Air Path Node,Outlet Node,1,15 ZONE DOAS DEMAND OUTLET NODE,15 ZONE DOAS
   Return Air Path Node,Inlet Node,2,PERIMETER_TOP_ZN_3 ZN RETURN AIR NODE,15 ZONE DOAS
   Return Air Path Node,Inlet Node,3,PERIMETER_TOP_ZN_2 ZN RETURN AIR NODE,15 ZONE DOAS
   Return Air Path Node,Inlet Node,4,PERIMETER_MID_ZN_4 ZN RETURN AIR NODE,15 ZONE DOAS
   Return Air Path Node,Inlet Node,5,PERIMETER_BOT_ZN_3 ZN RETURN AIR NODE,15 ZONE DOAS
   Return Air Path Node,Inlet Node,6,PERIMETER_MID_ZN_3 ZN RETURN AIR NODE,15 ZONE DOAS
   Return Air Path Node,Inlet Node,7,PERIMETER_BOT_ZN_2 ZN RETURN AIR NODE,15 ZONE DOAS
   Return Air Path Node,Inlet Node,8,PERIMETER_MID_ZN_1 ZN RETURN AIR NODE,15 ZONE DOAS
   Return Air Path Node,Inlet Node,9,CORE_MID ZN RETURN AIR NODE,15 ZONE DOAS
   Return Air Path Node,Inlet Node,10,PERIMETER_BOT_ZN_1 ZN RETURN AIR NODE,15 ZONE DOAS
   Return Air Path Node,Inlet Node,11,PERIMETER_TOP_ZN_1 ZN RETURN AIR NODE,15 ZONE DOAS
   Return Air Path Node,Inlet Node,12,PERIMETER_MID_ZN_2 ZN RETURN AIR NODE,15 ZONE DOAS
   Return Air Path Node,Inlet Node,13,PERIMETER_BOT_ZN_4 ZN RETURN AIR NODE,15 ZONE DOAS
   Return Air Path Node,Inlet Node,14,CORE_TOP ZN RETURN AIR NODE,15 ZONE DOAS
   Return Air Path Node,Inlet Node,15,PERIMETER_TOP_ZN_4 ZN RETURN AIR NODE,15 ZONE DOAS
   Return Air Path Node,Inlet Node,16,CORE_BOTTOM ZN RETURN AIR NODE,15 ZONE DOAS
! ===============================================================
! #Outdoor Air Nodes,<Number of Outdoor Air Nodes>
 #Outdoor Air Nodes,17
! <Outdoor Air Node>,<NodeNumber>,<Node Name>
 Outdoor Air Node,245,CORE_BOTTOM ZN FCU OA NODE
 Outdoor Air Node,246,CORE_MID ZN FCU OA NODE
 Outdoor Air Node,247,CORE_TOP ZN FCU OA NODE
 Outdoor Air Node,248,PERIMETER_BOT_ZN_1 ZN FCU OA NODE
 Outdoor Air Node,249,PERIMETER_BOT_ZN_2 ZN FCU OA NODE
 Outdoor Air Node,250,PERIMETER_BOT_ZN_3 ZN FCU OA NODE
 Outdoor Air Node,251,PERIMETER_BOT_ZN_4 ZN FCU OA NODE
 Outdoor Air Node,252,PERIMETER_MID_ZN_1 ZN FCU OA NODE
 Outdoor Air Node,253,PERIMETER_MID_ZN_2 ZN FCU OA NODE
 Outdoor Air Node,254,PERIMETER_MID_ZN_3 ZN FCU OA NODE
 Outdoor Air Node,255,PERIMETER_MID_ZN_4 ZN FCU OA NODE
 Outdoor Air Node,256,PERIMETER_TOP_ZN_1 ZN FCU OA NODE
 Outdoor Air Node,257,PERIMETER_TOP_ZN_2 ZN FCU OA NODE
 Outdoor Air Node,258,PERIMETER_TOP_ZN_3 ZN FCU OA NODE
 Outdoor Air Node,259,PERIMETER_TOP_ZN_4 ZN FCU OA NODE
 Outdoor Air Node,260,15 ZONE DOAS OUTDOOR AIR NODE
 Outdoor Air Node,261,MODEL OUTDOOR AIR NODE
! ===============================================================
! <#Component Sets>,<Number of Component Sets>
 #Component Sets,163
! <Component Set>,<Component Set Count>,<Parent Object Type>,<Parent Object Name>,<Component Type>,<Component Name>,<Inlet Node ID>,<Outlet Node ID>,<Description>
 Component Set,1,BRANCH,15 ZONE DOAS MAIN BRANCH,FAN:VARIABLEVOLUME,DOAS EXHAUST FAN,15 ZONE DOAS SUPPLY INLET NODE,DOAS EXHAUST FAN OUTLET AIR NODE,Air Nodes
 Component Set,2,BRANCH,15 ZONE DOAS MAIN BRANCH,AIRLOOPHVAC:OUTDOORAIRSYSTEM,15 ZONE DOAS OA SYSTEM,DOAS EXHAUST FAN OUTLET AIR NODE,15 ZONE DOAS MIXED AIR NODE,Air Nodes
 Component Set,3,BRANCH,15 ZONE DOAS MAIN BRANCH,COIL:COOLING:WATER,15 ZONE DOAS CLG COIL,15 ZONE DOAS MIXED AIR NODE,15 ZONE DOAS CLG COIL OUTLET AIR NODE,Air Nodes
 Component Set,4,BRANCH,15 ZONE DOAS MAIN BRANCH,COIL:HEATING:WATER,15 ZONE DOAS HTG COIL,15 ZONE DOAS CLG COIL OUTLET AIR NODE,15 ZONE DOAS HTG COIL OUTLET AIR NODE,Air Nodes
 Component Set,5,BRANCH,15 ZONE DOAS MAIN BRANCH,FAN:VARIABLEVOLUME,DOAS SUPPLY FAN,15 ZONE DOAS HTG COIL OUTLET AIR NODE,15 ZONE DOAS SUPPLY OUTLET NODE,Air Nodes
 Component Set,6,BRANCH,CHILLED WATER LOOP SUPPLY INLET BRANCH,PUMP:CONSTANTSPEED,CHILLED WATER LOOP PRIMARY PUMP,CHILLED WATER LOOP SUPPLY INLET NODE,CHILLED WATER LOOP PRIMARY PUMP OUTLET WATER NODE,Water Nodes
 Component Set,7,BRANCH,CHILLED WATER LOOP SUPPLY BRANCH 1,CHILLER:ELECTRIC:EIR,NREL ZNE READY 2017 WATERCOOLED  ROTARY SCREW CHILLER 0,NREL ZNE READY 2017 WATERCOOLED  ROTARY SCREW CHILLER 0 SUPPLY INLET WATER NODE,NREL ZNE READY 2017 WATERCOOLED  ROTARY SCREW CHILLER 0 SUPPLY OUTLET WATER NODE,Chilled Water Nodes
 Component Set,8,BRANCH,CHILLED WATER LOOP SUPPLY BRANCH 2,PIPE:ADIABATIC,CHILLED WATER LOOP CHILLER BYPASS,CHILLED WATER LOOP CHILLER BYPASS INLET WATER NODE,CHILLED WATER LOOP CHILLER BYPASS OUTLET WATER NODE,Pipe Nodes
 Component Set,9,BRANCH,CHILLED WATER LOOP SUPPLY OUTLET BRANCH,PIPE:ADIABATIC,CHILLED WATER LOOP SUPPLY OUTLET,CHILLED WATER LOOP SUPPLY OUTLET INLET WATER NODE,CHILLED WATER LOOP SUPPLY OUTLET NODE,Pipe Nodes
 Component Set,10,BRANCH,CHILLED WATER LOOP DEMAND INLET BRANCH,PIPE:ADIABATIC,CHILLED WATER LOOP DEMAND INLET,CHILLED WATER LOOP DEMAND INLET NODE,CHILLED WATER LOOP SECONDARY PUMP INLET WATER NODE,Pipe Nodes
 Component Set,11,BRANCH,CHILLED WATER LOOP DEMAND INLET BRANCH,PUMP:VARIABLESPEED,CHILLED WATER LOOP SECONDARY PUMP,CHILLED WATER LOOP SECONDARY PUMP INLET WATER NODE,CHILLED WATER LOOP SECONDARY PUMP OUTLET WATER NODE,Water Nodes
 Component Set,12,BRANCH,CHILLED WATER LOOP DEMAND BRANCH 1,PIPE:ADIABATIC,CHILLED WATER LOOP COIL BYPASS,CHILLED WATER LOOP COIL BYPASS INLET WATER NODE,CHILLED WATER LOOP COIL BYPASS OUTLET WATER NODE,Pipe Nodes
 Component Set,13,BRANCH,CHILLED WATER LOOP DEMAND BRANCH 2,COIL:COOLING:WATER,15 ZONE DOAS CLG COIL,15 ZONE DOAS CLG COIL INLET WATER NODE,15 ZONE DOAS CLG COIL OUTLET WATER NODE,Water Nodes
 Component Set,14,BRANCH,CHILLED WATER LOOP DEMAND BRANCH 3,COIL:COOLING:WATER,PERIMETER_TOP_ZN_3 ZN FCU COOLING COIL,PERIMETER_TOP_ZN_3 ZN FCU COOLING COIL INLET WATER NODE,PERIMETER_TOP_ZN_3 ZN FCU COOLING COIL OUTLET WATER NODE,Water Nodes
 Component Set,15,BRANCH,CHILLED WATER LOOP DEMAND BRANCH 4,COIL:COOLING:WATER,PERIMETER_TOP_ZN_2 ZN FCU COOLING COIL,PERIMETER_TOP_ZN_2 ZN FCU COOLING COIL INLET WATER NODE,PERIMETER_TOP_ZN_2 ZN FCU COOLING COIL OUTLET WATER NODE,Water Nodes
 Component Set,16,BRANCH,CHILLED WATER LOOP DEMAND BRANCH 5,COIL:COOLING:WATER,PERIMETER_MID_ZN_4 ZN FCU COOLING COIL,PERIMETER_MID_ZN_4 ZN FCU COOLING COIL INLET WATER NODE,PERIMETER_MID_ZN_4 ZN FCU COOLING COIL OUTLET WATER NODE,Water Nodes
 Component Set,17,BRANCH,CHILLED WATER LOOP DEMAND BRANCH 6,COIL:COOLING:WATER,PERIMETER_BOT_ZN_3 ZN FCU COOLING COIL,PERIMETER_BOT_ZN_3 ZN FCU COOLING COIL INLET WATER NODE,PERIMETER_BOT_ZN_3 ZN FCU COOLING COIL OUTLET WATER NODE,Water Nodes
 Component Set,18,BRANCH,CHILLED WATER LOOP DEMAND BRANCH 7,COIL:COOLING:WATER,PERIMETER_MID_ZN_3 ZN FCU COOLING COIL,PERIMETER_MID_ZN_3 ZN FCU COOLING COIL INLET WATER NODE,PERIMETER_MID_ZN_3 ZN FCU COOLING COIL OUTLET WATER NODE,Water Nodes
 Component Set,19,BRANCH,CHILLED WATER LOOP DEMAND BRANCH 8,COIL:COOLING:WATER,PERIMETER_BOT_ZN_2 ZN FCU COOLING COIL,PERIMETER_BOT_ZN_2 ZN FCU COOLING COIL INLET WATER NODE,PERIMETER_BOT_ZN_2 ZN FCU COOLING COIL OUTLET WATER NODE,Water Nodes
 Component Set,20,BRANCH,CHILLED WATER LOOP DEMAND BRANCH 9,COIL:COOLING:WATER,PERIMETER_MID_ZN_1 ZN FCU COOLING COIL,PERIMETER_MID_ZN_1 ZN FCU COOLING COIL INLET WATER NODE,PERIMETER_MID_ZN_1 ZN FCU COOLING COIL OUTLET WATER NODE,Water Nodes
 Component Set,21,BRANCH,CHILLED WATER LOOP DEMAND BRANCH 10,COIL:COOLING:WATER,CORE_MID ZN FCU COOLING COIL,CORE_MID ZN FCU COOLING COIL INLET WATER NODE,CORE_MID ZN FCU COOLING COIL OUTLET WATER NODE,Water Nodes
 Component Set,22,BRANCH,CHILLED WATER LOOP DEMAND BRANCH 11,COIL:COOLING:WATER,PERIMETER_BOT_ZN_1 ZN FCU COOLING COIL,PERIMETER_BOT_ZN_1 ZN FCU COOLING COIL INLET WATER NODE,PERIMETER_BOT_ZN_1 ZN FCU COOLING COIL OUTLET WATER NODE,Water Nodes
 Component Set,23,BRANCH,CHILLED WATER LOOP DEMAND BRANCH 12,COIL:COOLING:WATER,PERIMETER_TOP_ZN_1 ZN FCU COOLING COIL,PERIMETER_TOP_ZN_1 ZN FCU COOLING COIL INLET WATER NODE,PERIMETER_TOP_ZN_1 ZN FCU COOLING COIL OUTLET WATER NODE,Water Nodes
 Component Set,24,BRANCH,CHILLED WATER LOOP DEMAND BRANCH 13,COIL:COOLING:WATER,PERIMETER_MID_ZN_2 ZN FCU COOLING COIL,PERIMETER_MID_ZN_2 ZN FCU COOLING COIL INLET WATER NODE,PERIMETER_MID_ZN_2 ZN FCU COOLING COIL OUTLET WATER NODE,Water Nodes
 Component Set,25,BRANCH,CHILLED WATER LOOP DEMAND BRANCH 14,COIL:COOLING:WATER,PERIMETER_BOT_ZN_4 ZN FCU COOLING COIL,PERIMETER_BOT_ZN_4 ZN FCU COOLING COIL INLET WATER NODE,PERIMETER_BOT_ZN_4 ZN FCU COOLING COIL OUTLET WATER NODE,Water Nodes
 Component Set,26,BRANCH,CHILLED WATER LOOP DEMAND BRANCH 15,COIL:COOLING:WATER,CORE_TOP ZN FCU COOLING COIL,CORE_TOP ZN FCU COOLING COIL INLET WATER NODE,CORE_TOP ZN FCU COOLING COIL OUTLET WATER NODE,Water Nodes
 Component Set,27,BRANCH,CHILLED WATER LOOP DEMAND BRANCH 16,COIL:COOLING:WATER,PERIMETER_TOP_ZN_4 ZN FCU COOLING COIL,PERIMETER_TOP_ZN_4 ZN FCU COOLING COIL INLET WATER NODE,PERIMETER_TOP_ZN_4 ZN FCU COOLING COIL OUTLET WATER NODE,Water Nodes
 Component Set,28,BRANCH,CHILLED WATER LOOP DEMAND BRANCH 17,COIL:COOLING:WATER,CORE_BOTTOM ZN FCU COOLING COIL,CORE_BOTTOM ZN FCU COOLING COIL INLET WATER NODE,CORE_BOTTOM ZN FCU COOLING COIL OUTLET WATER NODE,Water Nodes
 Component Set,29,BRANCH,CHILLED WATER LOOP DEMAND BYPASS BRANCH,PIPE:ADIABATIC,CHILLED WATER LOOP DEMAND BYPASS PIPE,CHILLED WATER LOOP DEMAND BYPASS PIPE INLET NODE,CHILLED WATER LOOP DEMAND BYPASS PIPE OUTLET NODE,Pipe Nodes
 Component Set,30,BRANCH,CHILLED WATER LOOP DEMAND OUTLET BRANCH,PIPE:ADIABATIC,CHILLED WATER LOOP DEMAND OUTLET,CHILLED WATER LOOP DEMAND OUTLET INLET WATER NODE,CHILLED WATER LOOP DEMAND OUTLET NODE,Pipe Nodes
 Component Set,31,BRANCH,CONDENSER WATER LOOP SUPPLY INLET BRANCH,PUMP:CONSTANTSPEED,CONDENSER WATER LOOP CONSTANT PUMP,CONDENSER WATER LOOP SUPPLY INLET NODE,CONDENSER WATER LOOP CONSTANT PUMP OUTLET WATER NODE,Water Nodes
 Component Set,32,BRANCH,CONDENSER WATER LOOP SUPPLY BRANCH 1,COOLINGTOWER:VARIABLESPEED,PROPELLER OR AXIAL VARIABLE SPEED FAN OPEN COOLING TOWER,PROPELLER OR AXIAL VARIABLE SPEED FAN OPEN COOLING TOWER INLET WATER NODE,PROPELLER OR AXIAL VARIABLE SPEED FAN OPEN COOLING TOWER OUTLET WATER NODE,Chilled Water Nodes
 Component Set,33,BRANCH,CONDENSER WATER LOOP SUPPLY BRANCH 2,PIPE:ADIABATIC,CONDENSER WATER LOOP COOLING TOWER BYPASS,CONDENSER WATER LOOP COOLING TOWER BYPASS INLET WATER NODE,CONDENSER WATER LOOP COOLING TOWER BYPASS OUTLET WATER NODE,Pipe Nodes
 Component Set,34,BRANCH,CONDENSER WATER LOOP SUPPLY OUTLET BRANCH,PIPE:ADIABATIC,CONDENSER WATER LOOP SUPPLY OUTLET,CONDENSER WATER LOOP SUPPLY OUTLET INLET WATER NODE,CONDENSER WATER LOOP SUPPLY OUTLET NODE,Pipe Nodes
 Component Set,35,BRANCH,CONDENSER WATER LOOP DEMAND INLET BRANCH,PIPE:ADIABATIC,CONDENSER WATER LOOP DEMAND INLET,CONDENSER WATER LOOP DEMAND INLET NODE,CONDENSER WATER LOOP DEMAND INLET OUTLET WATER NODE,Pipe Nodes
 Component Set,36,BRANCH,CONDENSER WATER LOOP DEMAND BRANCH 1,PIPE:ADIABATIC,CONDENSER WATER LOOP CHILLER BYPASS,CONDENSER WATER LOOP CHILLER BYPASS INLET WATER NODE,CONDENSER WATER LOOP CHILLER BYPASS OUTLET WATER NODE,Pipe Nodes
 Component Set,37,BRANCH,CONDENSER WATER LOOP DEMAND BRANCH 2,CHILLER:ELECTRIC:EIR,NREL ZNE READY 2017 WATERCOOLED  ROTARY SCREW CHILLER 0,NREL ZNE READY 2017 WATERCOOLED  ROTARY SCREW CHILLER 0 DEMAND INLET WATER NODE,NREL ZNE READY 2017 WATERCOOLED  ROTARY SCREW CHILLER 0 DEMAND OUTLET WATER NODE,Condenser Water Nodes
 Component Set,38,BRANCH,CONDENSER WATER LOOP DEMAND BYPASS BRANCH,PIPE:ADIABATIC,CONDENSER WATER LOOP DEMAND BYPASS PIPE,CONDENSER WATER LOOP DEMAND BYPASS PIPE INLET NODE,CONDENSER WATER LOOP DEMAND BYPASS PIPE OUTLET NODE,Pipe Nodes
 Component Set,39,BRANCH,CONDENSER WATER LOOP DEMAND OUTLET BRANCH,PIPE:ADIABATIC,CONDENSER WATER LOOP DEMAND OUTLET,CONDENSER WATER LOOP DEMAND OUTLET INLET WATER NODE,CONDENSER WATER LOOP DEMAND OUTLET NODE,Pipe Nodes
 Component Set,40,BRANCH,HOT WATER LOOP SUPPLY INLET BRANCH,PUMP:VARIABLESPEED,HOT WATER LOOP PUMP,HOT WATER LOOP SUPPLY INLET NODE,HOT WATER LOOP PUMP OUTLET WATER NODE,Water Nodes
 Component Set,41,BRANCH,HOT WATER LOOP SUPPLY BRANCH 1,BOILER:HOTWATER,BOILER,BOILER INLET WATER NODE,BOILER OUTLET WATER NODE,Hot Water Nodes
 Component Set,42,BRANCH,HOT WATER LOOP SUPPLY BRANCH 2,PIPE:ADIABATIC,HOT WATER LOOP SUPPLY EQUIPMENT BYPASS,HOT WATER LOOP SUPPLY EQUIPMENT BYPASS INLET WATER NODE,HOT WATER LOOP SUPPLY EQUIPMENT BYPASS OUTLET WATER NODE,Pipe Nodes
 Component Set,43,BRANCH,HOT WATER LOOP SUPPLY OUTLET BRANCH,PIPE:ADIABATIC,HOT WATER LOOP SUPPLY OUTLET,HOT WATER LOOP SUPPLY OUTLET INLET WATER NODE,HOT WATER LOOP SUPPLY OUTLET NODE,Pipe Nodes
 Component Set,44,BRANCH,HOT WATER LOOP DEMAND INLET BRANCH,PIPE:ADIABATIC,HOT WATER LOOP DEMAND INLET,HOT WATER LOOP DEMAND INLET NODE,HOT WATER LOOP DEMAND INLET OUTLET WATER NODE,Pipe Nodes
 Component Set,45,BRANCH,HOT WATER LOOP DEMAND BRANCH 1,PIPE:ADIABATIC,HOT WATER LOOP COIL BYPASS,HOT WATER LOOP COIL BYPASS INLET WATER NODE,HOT WATER LOOP COIL BYPASS OUTLET WATER NODE,Pipe Nodes
 Component Set,46,BRANCH,HOT WATER LOOP DEMAND BRANCH 2,COIL:HEATING:WATER,15 ZONE DOAS HTG COIL,15 ZONE DOAS HTG COIL INLET WATER NODE,15 ZONE DOAS HTG COIL OUTLET WATER NODE,Water Nodes
 Component Set,47,BRANCH,HOT WATER LOOP DEMAND BRANCH 3,COIL:HEATING:WATER,PERIMETER_TOP_ZN_3 ZN FCU HEATING COIL,PERIMETER_TOP_ZN_3 ZN FCU HEATING COIL INLET WATER NODE,PERIMETER_TOP_ZN_3 ZN FCU HEATING COIL OUTLET WATER NODE,Water Nodes
 Component Set,48,BRANCH,HOT WATER LOOP DEMAND BRANCH 4,COIL:HEATING:WATER,PERIMETER_TOP_ZN_2 ZN FCU HEATING COIL,PERIMETER_TOP_ZN_2 ZN FCU HEATING COIL INLET WATER NODE,PERIMETER_TOP_ZN_2 ZN FCU HEATING COIL OUTLET WATER NODE,Water Nodes
 Component Set,49,BRANCH,HOT WATER LOOP DEMAND BRANCH 5,COIL:HEATING:WATER,PERIMETER_MID_ZN_4 ZN FCU HEATING COIL,PERIMETER_MID_ZN_4 ZN FCU HEATING COIL INLET WATER NODE,PERIMETER_MID_ZN_4 ZN FCU HEATING COIL OUTLET WATER NODE,Water Nodes
 Component Set,50,BRANCH,HOT WATER LOOP DEMAND BRANCH 6,COIL:HEATING:WATER,PERIMETER_BOT_ZN_3 ZN FCU HEATING COIL,PERIMETER_BOT_ZN_3 ZN FCU HEATING COIL INLET WATER NODE,PERIMETER_BOT_ZN_3 ZN FCU HEATING COIL OUTLET WATER NODE,Water Nodes
 Component Set,51,BRANCH,HOT WATER LOOP DEMAND BRANCH 7,COIL:HEATING:WATER,PERIMETER_MID_ZN_3 ZN FCU HEATING COIL,PERIMETER_MID_ZN_3 ZN FCU HEATING COIL INLET WATER NODE,PERIMETER_MID_ZN_3 ZN FCU HEATING COIL OUTLET WATER NODE,Water Nodes
 Component Set,52,BRANCH,HOT WATER LOOP DEMAND BRANCH 8,COIL:HEATING:WATER,PERIMETER_BOT_ZN_2 ZN FCU HEATING COIL,PERIMETER_BOT_ZN_2 ZN FCU HEATING COIL INLET WATER NODE,PERIMETER_BOT_ZN_2 ZN FCU HEATING COIL OUTLET WATER NODE,Water Nodes
 Component Set,53,BRANCH,HOT WATER LOOP DEMAND BRANCH 9,COIL:HEATING:WATER,PERIMETER_MID_ZN_1 ZN FCU HEATING COIL,PERIMETER_MID_ZN_1 ZN FCU HEATING COIL INLET WATER NODE,PERIMETER_MID_ZN_1 ZN FCU HEATING COIL OUTLET WATER NODE,Water Nodes
 Component Set,54,BRANCH,HOT WATER LOOP DEMAND BRANCH 10,COIL:HEATING:WATER,CORE_MID ZN FCU HEATING COIL,CORE_MID ZN FCU HEATING COIL INLET WATER NODE,CORE_MID ZN FCU HEATING COIL OUTLET WATER NODE,Water Nodes
 Component Set,55,BRANCH,HOT WATER LOOP DEMAND BRANCH 11,COIL:HEATING:WATER,PERIMETER_BOT_ZN_1 ZN FCU HEATING COIL,PERIMETER_BOT_ZN_1 ZN FCU HEATING COIL INLET WATER NODE,PERIMETER_BOT_ZN_1 ZN FCU HEATING COIL OUTLET WATER NODE,Water Nodes
 Component Set,56,BRANCH,HOT WATER LOOP DEMAND BRANCH 12,COIL:HEATING:WATER,PERIMETER_TOP_ZN_1 ZN FCU HEATING COIL,PERIMETER_TOP_ZN_1 ZN FCU HEATING COIL INLET WATER NODE,PERIMETER_TOP_ZN_1 ZN FCU HEATING COIL OUTLET WATER NODE,Water Nodes
 Component Set,57,BRANCH,HOT WATER LOOP DEMAND BRANCH 13,COIL:HEATING:WATER,PERIMETER_MID_ZN_2 ZN FCU HEATING COIL,PERIMETER_MID_ZN_2 ZN FCU HEATING COIL INLET WATER NODE,PERIMETER_MID_ZN_2 ZN FCU HEATING COIL OUTLET WATER NODE,Water Nodes
 Component Set,58,BRANCH,HOT WATER LOOP DEMAND BRANCH 14,COIL:HEATING:WATER,PERIMETER_BOT_ZN_4 ZN FCU HEATING COIL,PERIMETER_BOT_ZN_4 ZN FCU HEATING COIL INLET WATER NODE,PERIMETER_BOT_ZN_4 ZN FCU HEATING COIL OUTLET WATER NODE,Water Nodes
 Component Set,59,BRANCH,HOT WATER LOOP DEMAND BRANCH 15,COIL:HEATING:WATER,CORE_TOP ZN FCU HEATING COIL,CORE_TOP ZN FCU HEATING COIL INLET WATER NODE,CORE_TOP ZN FCU HEATING COIL OUTLET WATER NODE,Water Nodes
 Component Set,60,BRANCH,HOT WATER LOOP DEMAND BRANCH 16,COIL:HEATING:WATER,PERIMETER_TOP_ZN_4 ZN FCU HEATING COIL,PERIMETER_TOP_ZN_4 ZN FCU HEATING COIL INLET WATER NODE,PERIMETER_TOP_ZN_4 ZN FCU HEATING COIL OUTLET WATER NODE,Water Nodes
 Component Set,61,BRANCH,HOT WATER LOOP DEMAND BRANCH 17,COIL:HEATING:WATER,CORE_BOTTOM ZN FCU HEATING COIL,CORE_BOTTOM ZN FCU HEATING COIL INLET WATER NODE,CORE_BOTTOM ZN FCU HEATING COIL OUTLET WATER NODE,Water Nodes
 Component Set,62,BRANCH,HOT WATER LOOP DEMAND BYPASS BRANCH,PIPE:ADIABATIC,HOT WATER LOOP DEMAND BYPASS PIPE,HOT WATER LOOP DEMAND BYPASS PIPE INLET NODE,HOT WATER LOOP DEMAND BYPASS PIPE OUTLET NODE,Pipe Nodes
 Component Set,63,BRANCH,HOT WATER LOOP DEMAND OUTLET BRANCH,PIPE:ADIABATIC,HOT WATER LOOP DEMAND OUTLET,HOT WATER LOOP DEMAND OUTLET INLET WATER NODE,HOT WATER LOOP DEMAND OUTLET NODE,Pipe Nodes
 Component Set,64,BRANCH,MAIN SERVICE WATER LOOP SUPPLY INLET BRANCH,PUMP:CONSTANTSPEED,SERVICE WATER LOOP PUMP,MAIN SERVICE WATER LOOP SUPPLY INLET NODE,SERVICE WATER LOOP PUMP OUTLET WATER NODE,Water Nodes
 Component Set,65,BRANCH,MAIN SERVICE WATER LOOP SUPPLY BRANCH 1,WATERHEATER:MIXED,100GAL NATURAL GAS WATER HEATER - 100KBTU/HR 0.802 THERM EFF,100GAL NATURAL GAS WATER HEATER - 100KBTU/HR 0.802 THERM EFF SUPPLY INLET WATER NODE,100GAL NATURAL GAS WATER HEATER - 100KBTU/HR 0.802 THERM EFF SUPPLY OUTLET WATER NODE,Use Side Water Nodes
 Component Set,66,BRANCH,MAIN SERVICE WATER LOOP SUPPLY BRANCH 2,PIPE:ADIABATIC,PIPE ADIABATIC 1,PIPE ADIABATIC 1 INLET WATER NODE,PIPE ADIABATIC 1 OUTLET WATER NODE,Pipe Nodes
 Component Set,67,BRANCH,MAIN SERVICE WATER LOOP SUPPLY OUTLET BRANCH,PIPE:ADIABATIC,PIPE ADIABATIC 3,PIPE ADIABATIC 3 INLET WATER NODE,MAIN SERVICE WATER LOOP SUPPLY OUTLET NODE,Pipe Nodes
 Component Set,68,BRANCH,MAIN SERVICE WATER LOOP DEMAND INLET BRANCH,PIPE:ADIABATIC,PIPE ADIABATIC 4,MAIN SERVICE WATER LOOP DEMAND INLET NODE,PIPE ADIABATIC 4 OUTLET WATER NODE,Pipe Nodes
 Component Set,69,BRANCH,MAIN SERVICE WATER LOOP DEMAND BRANCH 1,PIPE:ADIABATIC,PIPE ADIABATIC 2,PIPE ADIABATIC 2 INLET WATER NODE,PIPE ADIABATIC 2 OUTLET WATER NODE,Pipe Nodes
 Component Set,70,BRANCH,MAIN SERVICE WATER LOOP DEMAND BRANCH 2,WATERUSE:CONNECTIONS,WATER USE CONNECTIONS 1,WATER USE CONNECTIONS 1 INLET WATER NODE,WATER USE CONNECTIONS 1 OUTLET WATER NODE,DHW Nodes
 Component Set,71,BRANCH,MAIN SERVICE WATER LOOP DEMAND BRANCH 3,WATERUSE:CONNECTIONS,WATER USE CONNECTIONS 2,WATER USE CONNECTIONS 2 INLET WATER NODE,WATER USE CONNECTIONS 2 OUTLET WATER NODE,DHW Nodes
 Component Set,72,BRANCH,MAIN SERVICE WATER LOOP DEMAND BRANCH 4,WATERUSE:CONNECTIONS,WATER USE CONNECTIONS 3,WATER USE CONNECTIONS 3 INLET WATER NODE,WATER USE CONNECTIONS 3 OUTLET WATER NODE,DHW Nodes
 Component Set,73,BRANCH,MAIN SERVICE WATER LOOP DEMAND BRANCH 5,WATERUSE:CONNECTIONS,WATER USE CONNECTIONS 4,WATER USE CONNECTIONS 4 INLET WATER NODE,WATER USE CONNECTIONS 4 OUTLET WATER NODE,DHW Nodes
 Component Set,74,BRANCH,MAIN SERVICE WATER LOOP DEMAND BRANCH 6,WATERUSE:CONNECTIONS,WATER USE CONNECTIONS 5,WATER USE CONNECTIONS 5 INLET WATER NODE,WATER USE CONNECTIONS 5 OUTLET WATER NODE,DHW Nodes
 Component Set,75,BRANCH,MAIN SERVICE WATER LOOP DEMAND BRANCH 7,WATERUSE:CONNECTIONS,WATER USE CONNECTIONS 6,WATER USE CONNECTIONS 6 INLET WATER NODE,WATER USE CONNECTIONS 6 OUTLET WATER NODE,DHW Nodes
 Component Set,76,BRANCH,MAIN SERVICE WATER LOOP DEMAND BRANCH 8,WATERUSE:CONNECTIONS,WATER USE CONNECTIONS 7,WATER USE CONNECTIONS 7 INLET WATER NODE,WATER USE CONNECTIONS 7 OUTLET WATER NODE,DHW Nodes
 Component Set,77,BRANCH,MAIN SERVICE WATER LOOP DEMAND BRANCH 9,WATERUSE:CONNECTIONS,WATER USE CONNECTIONS 8,WATER USE CONNECTIONS 8 INLET WATER NODE,WATER USE CONNECTIONS 8 OUTLET WATER NODE,DHW Nodes
 Component Set,78,BRANCH,MAIN SERVICE WATER LOOP DEMAND BRANCH 10,WATERUSE:CONNECTIONS,WATER USE CONNECTIONS 9,WATER USE CONNECTIONS 9 INLET WATER NODE,WATER USE CONNECTIONS 9 OUTLET WATER NODE,DHW Nodes
 Component Set,79,BRANCH,MAIN SERVICE WATER LOOP DEMAND BRANCH 11,WATERUSE:CONNECTIONS,WATER USE CONNECTIONS 10,WATER USE CONNECTIONS 10 INLET WATER NODE,WATER USE CONNECTIONS 10 OUTLET WATER NODE,DHW Nodes
 Component Set,80,BRANCH,MAIN SERVICE WATER LOOP DEMAND BRANCH 12,WATERUSE:CONNECTIONS,WATER USE CONNECTIONS 11,WATER USE CONNECTIONS 11 INLET WATER NODE,WATER USE CONNECTIONS 11 OUTLET WATER NODE,DHW Nodes
 Component Set,81,BRANCH,MAIN SERVICE WATER LOOP DEMAND BRANCH 13,WATERUSE:CONNECTIONS,WATER USE CONNECTIONS 12,WATER USE CONNECTIONS 12 INLET WATER NODE,WATER USE CONNECTIONS 12 OUTLET WATER NODE,DHW Nodes
 Component Set,82,BRANCH,MAIN SERVICE WATER LOOP DEMAND BRANCH 14,WATERUSE:CONNECTIONS,WATER USE CONNECTIONS 13,WATER USE CONNECTIONS 13 INLET WATER NODE,WATER USE CONNECTIONS 13 OUTLET WATER NODE,DHW Nodes
 Component Set,83,BRANCH,MAIN SERVICE WATER LOOP DEMAND BRANCH 15,WATERUSE:CONNECTIONS,WATER USE CONNECTIONS 14,WATER USE CONNECTIONS 14 INLET WATER NODE,WATER USE CONNECTIONS 14 OUTLET WATER NODE,DHW Nodes
 Component Set,84,BRANCH,MAIN SERVICE WATER LOOP DEMAND BRANCH 16,WATERUSE:CONNECTIONS,WATER USE CONNECTIONS 15,WATER USE CONNECTIONS 15 INLET WATER NODE,WATER USE CONNECTIONS 15 OUTLET WATER NODE,DHW Nodes
 Component Set,85,BRANCH,MAIN SERVICE WATER LOOP DEMAND BYPASS BRANCH,PIPE:ADIABATIC,MAIN SERVICE WATER LOOP DEMAND BYPASS PIPE,MAIN SERVICE WATER LOOP DEMAND BYPASS PIPE INLET NODE,MAIN SERVICE WATER LOOP DEMAND BYPASS PIPE OUTLET NODE,Pipe Nodes
 Component Set,86,BRANCH,MAIN SERVICE WATER LOOP DEMAND OUTLET BRANCH,PIPE:ADIABATIC,PIPE ADIABATIC 5,PIPE ADIABATIC 5 INLET WATER NODE,MAIN SERVICE WATER LOOP DEMAND OUTLET NODE,Pipe Nodes
 Component Set,87,ZONEHVAC:AIRDISTRIBUTIONUNIT,ADU CORE_BOTTOM ZN AIR TERMINAL,AIRTERMINAL:SINGLEDUCT:VAV:NOREHEAT,CORE_BOTTOM ZN AIR TERMINAL,CORE_BOTTOM ZN AIR TERMINAL INLET AIR NODE,CORE_BOTTOM ZN AIR TERMINAL OUTLET AIR NODE,Air Nodes
 Component Set,88,ZONEHVAC:AIRDISTRIBUTIONUNIT,ADU CORE_MID ZN AIR TERMINAL,AIRTERMINAL:SINGLEDUCT:VAV:NOREHEAT,CORE_MID ZN AIR TERMINAL,CORE_MID ZN AIR TERMINAL INLET AIR NODE,CORE_MID ZN AIR TERMINAL OUTLET AIR NODE,Air Nodes
 Component Set,89,ZONEHVAC:AIRDISTRIBUTIONUNIT,ADU CORE_TOP ZN AIR TERMINAL,AIRTERMINAL:SINGLEDUCT:VAV:NOREHEAT,CORE_TOP ZN AIR TERMINAL,CORE_TOP ZN AIR TERMINAL INLET AIR NODE,CORE_TOP ZN AIR TERMINAL OUTLET AIR NODE,Air Nodes
 Component Set,90,ZONEHVAC:AIRDISTRIBUTIONUNIT,ADU PERIMETER_BOT_ZN_1 ZN AIR TERMINAL,AIRTERMINAL:SINGLEDUCT:VAV:NOREHEAT,PERIMETER_BOT_ZN_1 ZN AIR TERMINAL,PERIMETER_BOT_ZN_1 ZN AIR TERMINAL INLET AIR NODE,PERIMETER_BOT_ZN_1 ZN AIR TERMINAL OUTLET AIR NODE,Air Nodes
 Component Set,91,ZONEHVAC:AIRDISTRIBUTIONUNIT,ADU PERIMETER_BOT_ZN_2 ZN AIR TERMINAL,AIRTERMINAL:SINGLEDUCT:VAV:NOREHEAT,PERIMETER_BOT_ZN_2 ZN AIR TERMINAL,PERIMETER_BOT_ZN_2 ZN AIR TERMINAL INLET AIR NODE,PERIMETER_BOT_ZN_2 ZN AIR TERMINAL OUTLET AIR NODE,Air Nodes
 Component Set,92,ZONEHVAC:AIRDISTRIBUTIONUNIT,ADU PERIMETER_BOT_ZN_3 ZN AIR TERMINAL,AIRTERMINAL:SINGLEDUCT:VAV:NOREHEAT,PERIMETER_BOT_ZN_3 ZN AIR TERMINAL,PERIMETER_BOT_ZN_3 ZN AIR TERMINAL INLET AIR NODE,PERIMETER_BOT_ZN_3 ZN AIR TERMINAL OUTLET AIR NODE,Air Nodes
 Component Set,93,ZONEHVAC:AIRDISTRIBUTIONUNIT,ADU PERIMETER_BOT_ZN_4 ZN AIR TERMINAL,AIRTERMINAL:SINGLEDUCT:VAV:NOREHEAT,PERIMETER_BOT_ZN_4 ZN AIR TERMINAL,PERIMETER_BOT_ZN_4 ZN AIR TERMINAL INLET AIR NODE,PERIMETER_BOT_ZN_4 ZN AIR TERMINAL OUTLET AIR NODE,Air Nodes
 Component Set,94,ZONEHVAC:AIRDISTRIBUTIONUNIT,ADU PERIMETER_MID_ZN_1 ZN AIR TERMINAL,AIRTERMINAL:SINGLEDUCT:VAV:NOREHEAT,PERIMETER_MID_ZN_1 ZN AIR TERMINAL,PERIMETER_MID_ZN_1 ZN AIR TERMINAL INLET AIR NODE,PERIMETER_MID_ZN_1 ZN AIR TERMINAL OUTLET AIR NODE,Air Nodes
 Component Set,95,ZONEHVAC:AIRDISTRIBUTIONUNIT,ADU PERIMETER_MID_ZN_2 ZN AIR TERMINAL,AIRTERMINAL:SINGLEDUCT:VAV:NOREHEAT,PERIMETER_MID_ZN_2 ZN AIR TERMINAL,PERIMETER_MID_ZN_2 ZN AIR TERMINAL INLET AIR NODE,PERIMETER_MID_ZN_2 ZN AIR TERMINAL OUTLET AIR NODE,Air Nodes
 Component Set,96,ZONEHVAC:AIRDISTRIBUTIONUNIT,ADU PERIMETER_MID_ZN_3 ZN AIR TERMINAL,AIRTERMINAL:SINGLEDUCT:VAV:NOREHEAT,PERIMETER_MID_ZN_3 ZN AIR TERMINAL,PERIMETER_MID_ZN_3 ZN AIR TERMINAL INLET AIR NODE,PERIMETER_MID_ZN_3 ZN AIR TERMINAL OUTLET AIR NODE,Air Nodes
 Component Set,97,ZONEHVAC:AIRDISTRIBUTIONUNIT,ADU PERIMETER_MID_ZN_4 ZN AIR TERMINAL,AIRTERMINAL:SINGLEDUCT:VAV:NOREHEAT,PERIMETER_MID_ZN_4 ZN AIR TERMINAL,PERIMETER_MID_ZN_4 ZN AIR TERMINAL INLET AIR NODE,PERIMETER_MID_ZN_4 ZN AIR TERMINAL OUTLET AIR NODE,Air Nodes
 Component Set,98,ZONEHVAC:AIRDISTRIBUTIONUNIT,ADU PERIMETER_TOP_ZN_1 ZN AIR TERMINAL,AIRTERMINAL:SINGLEDUCT:VAV:NOREHEAT,PERIMETER_TOP_ZN_1 ZN AIR TERMINAL,PERIMETER_TOP_ZN_1 ZN AIR TERMINAL INLET AIR NODE,PERIMETER_TOP_ZN_1 ZN AIR TERMINAL OUTLET AIR NODE,Air Nodes
 Component Set,99,ZONEHVAC:AIRDISTRIBUTIONUNIT,ADU PERIMETER_TOP_ZN_2 ZN AIR TERMINAL,AIRTERMINAL:SINGLEDUCT:VAV:NOREHEAT,PERIMETER_TOP_ZN_2 ZN AIR TERMINAL,PERIMETER_TOP_ZN_2 ZN AIR TERMINAL INLET AIR NODE,PERIMETER_TOP_ZN_2 ZN AIR TERMINAL OUTLET AIR NODE,Air Nodes
 Component Set,100,ZONEHVAC:AIRDISTRIBUTIONUNIT,ADU PERIMETER_TOP_ZN_3 ZN AIR TERMINAL,AIRTERMINAL:SINGLEDUCT:VAV:NOREHEAT,PERIMETER_TOP_ZN_3 ZN AIR TERMINAL,PERIMETER_TOP_ZN_3 ZN AIR TERMINAL INLET AIR NODE,PERIMETER_TOP_ZN_3 ZN AIR TERMINAL OUTLET AIR NODE,Air Nodes
 Component Set,101,ZONEHVAC:AIRDISTRIBUTIONUNIT,ADU PERIMETER_TOP_ZN_4 ZN AIR TERMINAL,AIRTERMINAL:SINGLEDUCT:VAV:NOREHEAT,PERIMETER_TOP_ZN_4 ZN AIR TERMINAL,PERIMETER_TOP_ZN_4 ZN AIR TERMINAL INLET AIR NODE,PERIMETER_TOP_ZN_4 ZN AIR TERMINAL OUTLET AIR NODE,Air Nodes
 Component Set,102,ZONEHVAC:FOURPIPEFANCOIL,CORE_BOTTOM ZN FCU,OUTDOORAIR:MIXER,CORE_BOTTOM ZN FCU OA MIXER,CORE_BOTTOM ZN FCU OA NODE,CORE_BOTTOM ZN FCU MIXED AIR NODE,Air Nodes
 Component Set,103,ZONEHVAC:FOURPIPEFANCOIL,CORE_MID ZN FCU,OUTDOORAIR:MIXER,CORE_MID ZN FCU OA MIXER,CORE_MID ZN FCU OA NODE,CORE_MID ZN FCU MIXED AIR NODE,Air Nodes
 Component Set,104,ZONEHVAC:FOURPIPEFANCOIL,CORE_TOP ZN FCU,OUTDOORAIR:MIXER,CORE_TOP ZN FCU OA MIXER,CORE_TOP ZN FCU OA NODE,CORE_TOP ZN FCU MIXED AIR NODE,Air Nodes
 Component Set,105,ZONEHVAC:FOURPIPEFANCOIL,PERIMETER_BOT_ZN_1 ZN FCU,OUTDOORAIR:MIXER,PERIMETER_BOT_ZN_1 ZN FCU OA MIXER,PERIMETER_BOT_ZN_1 ZN FCU OA NODE,PERIMETER_BOT_ZN_1 ZN FCU MIXED AIR NODE,Air Nodes
 Component Set,106,ZONEHVAC:FOURPIPEFANCOIL,PERIMETER_BOT_ZN_2 ZN FCU,OUTDOORAIR:MIXER,PERIMETER_BOT_ZN_2 ZN FCU OA MIXER,PERIMETER_BOT_ZN_2 ZN FCU OA NODE,PERIMETER_BOT_ZN_2 ZN FCU MIXED AIR NODE,Air Nodes
 Component Set,107,ZONEHVAC:FOURPIPEFANCOIL,PERIMETER_BOT_ZN_3 ZN FCU,OUTDOORAIR:MIXER,PERIMETER_BOT_ZN_3 ZN FCU OA MIXER,PERIMETER_BOT_ZN_3 ZN FCU OA NODE,PERIMETER_BOT_ZN_3 ZN FCU MIXED AIR NODE,Air Nodes
 Component Set,108,ZONEHVAC:FOURPIPEFANCOIL,PERIMETER_BOT_ZN_4 ZN FCU,OUTDOORAIR:MIXER,PERIMETER_BOT_ZN_4 ZN FCU OA MIXER,PERIMETER_BOT_ZN_4 ZN FCU OA NODE,PERIMETER_BOT_ZN_4 ZN FCU MIXED AIR NODE,Air Nodes
 Component Set,109,ZONEHVAC:FOURPIPEFANCOIL,PERIMETER_MID_ZN_1 ZN FCU,OUTDOORAIR:MIXER,PERIMETER_MID_ZN_1 ZN FCU OA MIXER,PERIMETER_MID_ZN_1 ZN FCU OA NODE,PERIMETER_MID_ZN_1 ZN FCU MIXED AIR NODE,Air Nodes
 Component Set,110,ZONEHVAC:FOURPIPEFANCOIL,PERIMETER_MID_ZN_2 ZN FCU,OUTDOORAIR:MIXER,PERIMETER_MID_ZN_2 ZN FCU OA MIXER,PERIMETER_MID_ZN_2 ZN FCU OA NODE,PERIMETER_MID_ZN_2 ZN FCU MIXED AIR NODE,Air Nodes
 Component Set,111,ZONEHVAC:FOURPIPEFANCOIL,PERIMETER_MID_ZN_3 ZN FCU,OUTDOORAIR:MIXER,PERIMETER_MID_ZN_3 ZN FCU OA MIXER,PERIMETER_MID_ZN_3 ZN FCU OA NODE,PERIMETER_MID_ZN_3 ZN FCU MIXED AIR NODE,Air Nodes
 Component Set,112,ZONEHVAC:FOURPIPEFANCOIL,PERIMETER_MID_ZN_4 ZN FCU,OUTDOORAIR:MIXER,PERIMETER_MID_ZN_4 ZN FCU OA MIXER,PERIMETER_MID_ZN_4 ZN FCU OA NODE,PERIMETER_MID_ZN_4 ZN FCU MIXED AIR NODE,Air Nodes
 Component Set,113,ZONEHVAC:FOURPIPEFANCOIL,PERIMETER_TOP_ZN_1 ZN FCU,OUTDOORAIR:MIXER,PERIMETER_TOP_ZN_1 ZN FCU OA MIXER,PERIMETER_TOP_ZN_1 ZN FCU OA NODE,PERIMETER_TOP_ZN_1 ZN FCU MIXED AIR NODE,Air Nodes
 Component Set,114,ZONEHVAC:FOURPIPEFANCOIL,PERIMETER_TOP_ZN_2 ZN FCU,OUTDOORAIR:MIXER,PERIMETER_TOP_ZN_2 ZN FCU OA MIXER,PERIMETER_TOP_ZN_2 ZN FCU OA NODE,PERIMETER_TOP_ZN_2 ZN FCU MIXED AIR NODE,Air Nodes
 Component Set,115,ZONEHVAC:FOURPIPEFANCOIL,PERIMETER_TOP_ZN_3 ZN FCU,OUTDOORAIR:MIXER,PERIMETER_TOP_ZN_3 ZN FCU OA MIXER,PERIMETER_TOP_ZN_3 ZN FCU OA NODE,PERIMETER_TOP_ZN_3 ZN FCU MIXED AIR NODE,Air Nodes
 Component Set,116,ZONEHVAC:FOURPIPEFANCOIL,PERIMETER_TOP_ZN_4 ZN FCU,OUTDOORAIR:MIXER,PERIMETER_TOP_ZN_4 ZN FCU OA MIXER,PERIMETER_TOP_ZN_4 ZN FCU OA NODE,PERIMETER_TOP_ZN_4 ZN FCU MIXED AIR NODE,Air Nodes
 Component Set,117,AIRLOOPHVAC:OUTDOORAIRSYSTEM,15 ZONE DOAS OA SYSTEM,OUTDOORAIR:MIXER,15 ZONE DOAS OA SYSTEM OUTDOOR AIR MIXER,15 ZONE DOAS HEAT EXCHANGER PRIMARY OUTLET AIR NODE,15 ZONE DOAS MIXED AIR NODE,Air Nodes
 Component Set,118,ZONEHVAC:FOURPIPEFANCOIL,CORE_BOTTOM ZN FCU,COIL:HEATING:WATER,CORE_BOTTOM ZN FCU HEATING COIL,CORE_BOTTOM ZN FCU COOLING COIL OUTLET NODE,CORE_BOTTOM ZN FCU OUTLET AIR NODE,Air Nodes
 Component Set,119,ZONEHVAC:FOURPIPEFANCOIL,CORE_MID ZN FCU,COIL:HEATING:WATER,CORE_MID ZN FCU HEATING COIL,CORE_MID ZN FCU COOLING COIL OUTLET NODE,CORE_MID ZN FCU OUTLET AIR NODE,Air Nodes
 Component Set,120,ZONEHVAC:FOURPIPEFANCOIL,CORE_TOP ZN FCU,COIL:HEATING:WATER,CORE_TOP ZN FCU HEATING COIL,CORE_TOP ZN FCU COOLING COIL OUTLET NODE,CORE_TOP ZN FCU OUTLET AIR NODE,Air Nodes
 Component Set,121,ZONEHVAC:FOURPIPEFANCOIL,PERIMETER_BOT_ZN_1 ZN FCU,COIL:HEATING:WATER,PERIMETER_BOT_ZN_1 ZN FCU HEATING COIL,PERIMETER_BOT_ZN_1 ZN FCU COOLING COIL OUTLET NODE,PERIMETER_BOT_ZN_1 ZN FCU OUTLET AIR NODE,Air Nodes
 Component Set,122,ZONEHVAC:FOURPIPEFANCOIL,PERIMETER_BOT_ZN_2 ZN FCU,COIL:HEATING:WATER,PERIMETER_BOT_ZN_2 ZN FCU HEATING COIL,PERIMETER_BOT_ZN_2 ZN FCU COOLING COIL OUTLET NODE,PERIMETER_BOT_ZN_2 ZN FCU OUTLET AIR NODE,Air Nodes
 Component Set,123,ZONEHVAC:FOURPIPEFANCOIL,PERIMETER_BOT_ZN_3 ZN FCU,COIL:HEATING:WATER,PERIMETER_BOT_ZN_3 ZN FCU HEATING COIL,PERIMETER_BOT_ZN_3 ZN FCU COOLING COIL OUTLET NODE,PERIMETER_BOT_ZN_3 ZN FCU OUTLET AIR NODE,Air Nodes
 Component Set,124,ZONEHVAC:FOURPIPEFANCOIL,PERIMETER_BOT_ZN_4 ZN FCU,COIL:HEATING:WATER,PERIMETER_BOT_ZN_4 ZN FCU HEATING COIL,PERIMETER_BOT_ZN_4 ZN FCU COOLING COIL OUTLET NODE,PERIMETER_BOT_ZN_4 ZN FCU OUTLET AIR NODE,Air Nodes
 Component Set,125,ZONEHVAC:FOURPIPEFANCOIL,PERIMETER_MID_ZN_1 ZN FCU,COIL:HEATING:WATER,PERIMETER_MID_ZN_1 ZN FCU HEATING COIL,PERIMETER_MID_ZN_1 ZN FCU COOLING COIL OUTLET NODE,PERIMETER_MID_ZN_1 ZN FCU OUTLET AIR NODE,Air Nodes
 Component Set,126,ZONEHVAC:FOURPIPEFANCOIL,PERIMETER_MID_ZN_2 ZN FCU,COIL:HEATING:WATER,PERIMETER_MID_ZN_2 ZN FCU HEATING COIL,PERIMETER_MID_ZN_2 ZN FCU COOLING COIL OUTLET NODE,PERIMETER_MID_ZN_2 ZN FCU OUTLET AIR NODE,Air Nodes
 Component Set,127,ZONEHVAC:FOURPIPEFANCOIL,PERIMETER_MID_ZN_3 ZN FCU,COIL:HEATING:WATER,PERIMETER_MID_ZN_3 ZN FCU HEATING COIL,PERIMETER_MID_ZN_3 ZN FCU COOLING COIL OUTLET NODE,PERIMETER_MID_ZN_3 ZN FCU OUTLET AIR NODE,Air Nodes
 Component Set,128,ZONEHVAC:FOURPIPEFANCOIL,PERIMETER_MID_ZN_4 ZN FCU,COIL:HEATING:WATER,PERIMETER_MID_ZN_4 ZN FCU HEATING COIL,PERIMETER_MID_ZN_4 ZN FCU COOLING COIL OUTLET NODE,PERIMETER_MID_ZN_4 ZN FCU OUTLET AIR NODE,Air Nodes
 Component Set,129,ZONEHVAC:FOURPIPEFANCOIL,PERIMETER_TOP_ZN_1 ZN FCU,COIL:HEATING:WATER,PERIMETER_TOP_ZN_1 ZN FCU HEATING COIL,PERIMETER_TOP_ZN_1 ZN FCU COOLING COIL OUTLET NODE,PERIMETER_TOP_ZN_1 ZN FCU OUTLET AIR NODE,Air Nodes
[...]
 Non-Parent Node Connection,PERIMETER_TOP_ZN_4 ZN FCU COOLING COIL OUTLET NODE,COIL:HEATING:WATER,PERIMETER_TOP_ZN_4 ZN FCU HEATING COIL,Inlet,1
 Non-Parent Node Connection,PERIMETER_TOP_ZN_4 ZN FCU OUTLET AIR NODE,COIL:HEATING:WATER,PERIMETER_TOP_ZN_4 ZN FCU HEATING COIL,Outlet,1
 Non-Parent Node Connection,15 ZONE DOAS HTG COIL INLET WATER NODE,COIL:HEATING:WATER,15 ZONE DOAS HTG COIL,Inlet,2
 Non-Parent Node Connection,15 ZONE DOAS HTG COIL OUTLET WATER NODE,COIL:HEATING:WATER,15 ZONE DOAS HTG COIL,Outlet,2
 Non-Parent Node Connection,15 ZONE DOAS CLG COIL OUTLET AIR NODE,COIL:HEATING:WATER,15 ZONE DOAS HTG COIL,Inlet,1
 Non-Parent Node Connection,15 ZONE DOAS HTG COIL OUTLET AIR NODE,COIL:HEATING:WATER,15 ZONE DOAS HTG COIL,Outlet,1
 Non-Parent Node Connection,CORE_BOTTOM ZN FCU COOLING COIL INLET WATER NODE,COIL:COOLING:WATER,CORE_BOTTOM ZN FCU COOLING COIL,Inlet,2
 Non-Parent Node Connection,CORE_BOTTOM ZN FCU COOLING COIL OUTLET WATER NODE,COIL:COOLING:WATER,CORE_BOTTOM ZN FCU COOLING COIL,Outlet,2
 Non-Parent Node Connection,CORE_BOTTOM ZN FCU FAN OUTLET NODE,COIL:COOLING:WATER,CORE_BOTTOM ZN FCU COOLING COIL,Inlet,1
 Non-Parent Node Connection,CORE_BOTTOM ZN FCU COOLING COIL OUTLET NODE,COIL:COOLING:WATER,CORE_BOTTOM ZN FCU COOLING COIL,Outlet,1
 Non-Parent Node Connection,CORE_MID ZN FCU COOLING COIL INLET WATER NODE,COIL:COOLING:WATER,CORE_MID ZN FCU COOLING COIL,Inlet,2
 Non-Parent Node Connection,CORE_MID ZN FCU COOLING COIL OUTLET WATER NODE,COIL:COOLING:WATER,CORE_MID ZN FCU COOLING COIL,Outlet,2
 Non-Parent Node Connection,CORE_MID ZN FCU FAN OUTLET NODE,COIL:COOLING:WATER,CORE_MID ZN FCU COOLING COIL,Inlet,1
 Non-Parent Node Connection,CORE_MID ZN FCU COOLING COIL OUTLET NODE,COIL:COOLING:WATER,CORE_MID ZN FCU COOLING COIL,Outlet,1
 Non-Parent Node Connection,CORE_TOP ZN FCU COOLING COIL INLET WATER NODE,COIL:COOLING:WATER,CORE_TOP ZN FCU COOLING COIL,Inlet,2
 Non-Parent Node Connection,CORE_TOP ZN FCU COOLING COIL OUTLET WATER NODE,COIL:COOLING:WATER,CORE_TOP ZN FCU COOLING COIL,Outlet,2
 Non-Parent Node Connection,CORE_TOP ZN FCU FAN OUTLET NODE,COIL:COOLING:WATER,CORE_TOP ZN FCU COOLING COIL,Inlet,1
 Non-Parent Node Connection,CORE_TOP ZN FCU COOLING COIL OUTLET NODE,COIL:COOLING:WATER,CORE_TOP ZN FCU COOLING COIL,Outlet,1
 Non-Parent Node Connection,PERIMETER_BOT_ZN_1 ZN FCU COOLING COIL INLET WATER NODE,COIL:COOLING:WATER,PERIMETER_BOT_ZN_1 ZN FCU COOLING COIL,Inlet,2
 Non-Parent Node Connection,PERIMETER_BOT_ZN_1 ZN FCU COOLING COIL OUTLET WATER NODE,COIL:COOLING:WATER,PERIMETER_BOT_ZN_1 ZN FCU COOLING COIL,Outlet,2
 Non-Parent Node Connection,PERIMETER_BOT_ZN_1 ZN FCU FAN OUTLET NODE,COIL:COOLING:WATER,PERIMETER_BOT_ZN_1 ZN FCU COOLING COIL,Inlet,1
 Non-Parent Node Connection,PERIMETER_BOT_ZN_1 ZN FCU COOLING COIL OUTLET NODE,COIL:COOLING:WATER,PERIMETER_BOT_ZN_1 ZN FCU COOLING COIL,Outlet,1
 Non-Parent Node Connection,PERIMETER_BOT_ZN_2 ZN FCU COOLING COIL INLET WATER NODE,COIL:COOLING:WATER,PERIMETER_BOT_ZN_2 ZN FCU COOLING COIL,Inlet,2
 Non-Parent Node Connection,PERIMETER_BOT_ZN_2 ZN FCU COOLING COIL OUTLET WATER NODE,COIL:COOLING:WATER,PERIMETER_BOT_ZN_2 ZN FCU COOLING COIL,Outlet,2
 Non-Parent Node Connection,PERIMETER_BOT_ZN_2 ZN FCU FAN OUTLET NODE,COIL:COOLING:WATER,PERIMETER_BOT_ZN_2 ZN FCU COOLING COIL,Inlet,1
 Non-Parent Node Connection,PERIMETER_BOT_ZN_2 ZN FCU COOLING COIL OUTLET NODE,COIL:COOLING:WATER,PERIMETER_BOT_ZN_2 ZN FCU COOLING COIL,Outlet,1
 Non-Parent Node Connection,PERIMETER_BOT_ZN_3 ZN FCU COOLING COIL INLET WATER NODE,COIL:COOLING:WATER,PERIMETER_BOT_ZN_3 ZN FCU COOLING COIL,Inlet,2
 Non-Parent Node Connection,PERIMETER_BOT_ZN_3 ZN FCU COOLING COIL OUTLET WATER NODE,COIL:COOLING:WATER,PERIMETER_BOT_ZN_3 ZN FCU COOLING COIL,Outlet,2
 Non-Parent Node Connection,PERIMETER_BOT_ZN_3 ZN FCU FAN OUTLET NODE,COIL:COOLING:WATER,PERIMETER_BOT_ZN_3 ZN FCU COOLING COIL,Inlet,1
 Non-Parent Node Connection,PERIMETER_BOT_ZN_3 ZN FCU COOLING COIL OUTLET NODE,COIL:COOLING:WATER,PERIMETER_BOT_ZN_3 ZN FCU COOLING COIL,Outlet,1
 Non-Parent Node Connection,PERIMETER_BOT_ZN_4 ZN FCU COOLING COIL INLET WATER NODE,COIL:COOLING:WATER,PERIMETER_BOT_ZN_4 ZN FCU COOLING COIL,Inlet,2
 Non-Parent Node Connection,PERIMETER_BOT_ZN_4 ZN FCU COOLING COIL OUTLET WATER NODE,COIL:COOLING:WATER,PERIMETER_BOT_ZN_4 ZN FCU COOLING COIL,Outlet,2
 Non-Parent Node Connection,PERIMETER_BOT_ZN_4 ZN FCU FAN OUTLET NODE,COIL:COOLING:WATER,PERIMETER_BOT_ZN_4 ZN FCU COOLING COIL,Inlet,1
 Non-Parent Node Connection,PERIMETER_BOT_ZN_4 ZN FCU COOLING COIL OUTLET NODE,COIL:COOLING:WATER,PERIMETER_BOT_ZN_4 ZN FCU COOLING COIL,Outlet,1
 Non-Parent Node Connection,PERIMETER_MID_ZN_1 ZN FCU COOLING COIL INLET WATER NODE,COIL:COOLING:WATER,PERIMETER_MID_ZN_1 ZN FCU COOLING COIL,Inlet,2
 Non-Parent Node Connection,PERIMETER_MID_ZN_1 ZN FCU COOLING COIL OUTLET WATER NODE,COIL:COOLING:WATER,PERIMETER_MID_ZN_1 ZN FCU COOLING COIL,Outlet,2
 Non-Parent Node Connection,PERIMETER_MID_ZN_1 ZN FCU FAN OUTLET NODE,COIL:COOLING:WATER,PERIMETER_MID_ZN_1 ZN FCU COOLING COIL,Inlet,1
 Non-Parent Node Connection,PERIMETER_MID_ZN_1 ZN FCU COOLING COIL OUTLET NODE,COIL:COOLING:WATER,PERIMETER_MID_ZN_1 ZN FCU COOLING COIL,Outlet,1
 Non-Parent Node Connection,PERIMETER_MID_ZN_2 ZN FCU COOLING COIL INLET WATER NODE,COIL:COOLING:WATER,PERIMETER_MID_ZN_2 ZN FCU COOLING COIL,Inlet,2
 Non-Parent Node Connection,PERIMETER_MID_ZN_2 ZN FCU COOLING COIL OUTLET WATER NODE,COIL:COOLING:WATER,PERIMETER_MID_ZN_2 ZN FCU COOLING COIL,Outlet,2
 Non-Parent Node Connection,PERIMETER_MID_ZN_2 ZN FCU FAN OUTLET NODE,COIL:COOLING:WATER,PERIMETER_MID_ZN_2 ZN FCU COOLING COIL,Inlet,1
 Non-Parent Node Connection,PERIMETER_MID_ZN_2 ZN FCU COOLING COIL OUTLET NODE,COIL:COOLING:WATER,PERIMETER_MID_ZN_2 ZN FCU COOLING COIL,Outlet,1
 Non-Parent Node Connection,PERIMETER_MID_ZN_3 ZN FCU COOLING COIL INLET WATER NODE,COIL:COOLING:WATER,PERIMETER_MID_ZN_3 ZN FCU COOLING COIL,Inlet,2
 Non-Parent Node Connection,PERIMETER_MID_ZN_3 ZN FCU COOLING COIL OUTLET WATER NODE,COIL:COOLING:WATER,PERIMETER_MID_ZN_3 ZN FCU COOLING COIL,Outlet,2
 Non-Parent Node Connection,PERIMETER_MID_ZN_3 ZN FCU FAN OUTLET NODE,COIL:COOLING:WATER,PERIMETER_MID_ZN_3 ZN FCU COOLING COIL,Inlet,1
 Non-Parent Node Connection,PERIMETER_MID_ZN_3 ZN FCU COOLING COIL OUTLET NODE,COIL:COOLING:WATER,PERIMETER_MID_ZN_3 ZN FCU COOLING COIL,Outlet,1
 Non-Parent Node Connection,PERIMETER_MID_ZN_4 ZN FCU COOLING COIL INLET WATER NODE,COIL:COOLING:WATER,PERIMETER_MID_ZN_4 ZN FCU COOLING COIL,Inlet,2
 Non-Parent Node Connection,PERIMETER_MID_ZN_4 ZN FCU COOLING COIL OUTLET WATER NODE,COIL:COOLING:WATER,PERIMETER_MID_ZN_4 ZN FCU COOLING COIL,Outlet,2
 Non-Parent Node Connection,PERIMETER_MID_ZN_4 ZN FCU FAN OUTLET NODE,COIL:COOLING:WATER,PERIMETER_MID_ZN_4 ZN FCU COOLING COIL,Inlet,1
 Non-Parent Node Connection,PERIMETER_MID_ZN_4 ZN FCU COOLING COIL OUTLET NODE,COIL:COOLING:WATER,PERIMETER_MID_ZN_4 ZN FCU COOLING COIL,Outlet,1
 Non-Parent Node Connection,PERIMETER_TOP_ZN_1 ZN FCU COOLING COIL INLET WATER NODE,COIL:COOLING:WATER,PERIMETER_TOP_ZN_1 ZN FCU COOLING COIL,Inlet,2
 Non-Parent Node Connection,PERIMETER_TOP_ZN_1 ZN FCU COOLING COIL OUTLET WATER NODE,COIL:COOLING:WATER,PERIMETER_TOP_ZN_1 ZN FCU COOLING COIL,Outlet,2
 Non-Parent Node Connection,PERIMETER_TOP_ZN_1 ZN FCU FAN OUTLET NODE,COIL:COOLING:WATER,PERIMETER_TOP_ZN_1 ZN FCU COOLING COIL,Inlet,1
 Non-Parent Node Connection,PERIMETER_TOP_ZN_1 ZN FCU COOLING COIL OUTLET NODE,COIL:COOLING:WATER,PERIMETER_TOP_ZN_1 ZN FCU COOLING COIL,Outlet,1
 Non-Parent Node Connection,PERIMETER_TOP_ZN_2 ZN FCU COOLING COIL INLET WATER NODE,COIL:COOLING:WATER,PERIMETER_TOP_ZN_2 ZN FCU COOLING COIL,Inlet,2
 Non-Parent Node Connection,PERIMETER_TOP_ZN_2 ZN FCU COOLING COIL OUTLET WATER NODE,COIL:COOLING:WATER,PERIMETER_TOP_ZN_2 ZN FCU COOLING COIL,Outlet,2
 Non-Parent Node Connection,PERIMETER_TOP_ZN_2 ZN FCU FAN OUTLET NODE,COIL:COOLING:WATER,PERIMETER_TOP_ZN_2 ZN FCU COOLING COIL,Inlet,1
 Non-Parent Node Connection,PERIMETER_TOP_ZN_2 ZN FCU COOLING COIL OUTLET NODE,COIL:COOLING:WATER,PERIMETER_TOP_ZN_2 ZN FCU COOLING COIL,Outlet,1
 Non-Parent Node Connection,PERIMETER_TOP_ZN_3 ZN FCU COOLING COIL INLET WATER NODE,COIL:COOLING:WATER,PERIMETER_TOP_ZN_3 ZN FCU COOLING COIL,Inlet,2
 Non-Parent Node Connection,PERIMETER_TOP_ZN_3 ZN FCU COOLING COIL OUTLET WATER NODE,COIL:COOLING:WATER,PERIMETER_TOP_ZN_3 ZN FCU COOLING COIL,Outlet,2
 Non-Parent Node Connection,PERIMETER_TOP_ZN_3 ZN FCU FAN OUTLET NODE,COIL:COOLING:WATER,PERIMETER_TOP_ZN_3 ZN FCU COOLING COIL,Inlet,1
 Non-Parent Node Connection,PERIMETER_TOP_ZN_3 ZN FCU COOLING COIL OUTLET NODE,COIL:COOLING:WATER,PERIMETER_TOP_ZN_3 ZN FCU COOLING COIL,Outlet,1
 Non-Parent Node Connection,PERIMETER_TOP_ZN_4 ZN FCU COOLING COIL INLET WATER NODE,COIL:COOLING:WATER,PERIMETER_TOP_ZN_4 ZN FCU COOLING COIL,Inlet,2
 Non-Parent Node Connection,PERIMETER_TOP_ZN_4 ZN FCU COOLING COIL OUTLET WATER NODE,COIL:COOLING:WATER,PERIMETER_TOP_ZN_4 ZN FCU COOLING COIL,Outlet,2
 Non-Parent Node Connection,PERIMETER_TOP_ZN_4 ZN FCU FAN OUTLET NODE,COIL:COOLING:WATER,PERIMETER_TOP_ZN_4 ZN FCU COOLING COIL,Inlet,1
 Non-Parent Node Connection,PERIMETER_TOP_ZN_4 ZN FCU COOLING COIL OUTLET NODE,COIL:COOLING:WATER,PERIMETER_TOP_ZN_4 ZN FCU COOLING COIL,Outlet,1
 Non-Parent Node Connection,15 ZONE DOAS CLG COIL INLET WATER NODE,COIL:COOLING:WATER,15 ZONE DOAS CLG COIL,Inlet,2
 Non-Parent Node Connection,15 ZONE DOAS CLG COIL OUTLET WATER NODE,COIL:COOLING:WATER,15 ZONE DOAS CLG COIL,Outlet,2
 Non-Parent Node Connection,15 ZONE DOAS MIXED AIR NODE,COIL:COOLING:WATER,15 ZONE DOAS CLG COIL,Inlet,1
 Non-Parent Node Connection,15 ZONE DOAS CLG COIL OUTLET AIR NODE,COIL:COOLING:WATER,15 ZONE DOAS CLG COIL,Outlet,1
 Non-Parent Node Connection,15 ZONE DOAS SUPPLY INLET NODE,FAN:VARIABLEVOLUME,DOAS EXHAUST FAN,Inlet,1
 Non-Parent Node Connection,DOAS EXHAUST FAN OUTLET AIR NODE,FAN:VARIABLEVOLUME,DOAS EXHAUST FAN,Outlet,1
 Non-Parent Node Connection,15 ZONE DOAS HTG COIL OUTLET AIR NODE,FAN:VARIABLEVOLUME,DOAS SUPPLY FAN,Inlet,1
 Non-Parent Node Connection,15 ZONE DOAS SUPPLY OUTLET NODE,FAN:VARIABLEVOLUME,DOAS SUPPLY FAN,Outlet,1
 Non-Parent Node Connection,CORE_BOTTOM ZN FCU MIXED AIR NODE,FAN:ONOFF,CORE_BOTTOM ZN FAN COIL FAN,Inlet,1
 Non-Parent Node Connection,CORE_BOTTOM ZN FCU FAN OUTLET NODE,FAN:ONOFF,CORE_BOTTOM ZN FAN COIL FAN,Outlet,1
 Non-Parent Node Connection,CORE_MID ZN FCU MIXED AIR NODE,FAN:ONOFF,CORE_MID ZN FAN COIL FAN,Inlet,1
 Non-Parent Node Connection,CORE_MID ZN FCU FAN OUTLET NODE,FAN:ONOFF,CORE_MID ZN FAN COIL FAN,Outlet,1
 Non-Parent Node Connection,CORE_TOP ZN FCU MIXED AIR NODE,FAN:ONOFF,CORE_TOP ZN FAN COIL FAN,Inlet,1
 Non-Parent Node Connection,CORE_TOP ZN FCU FAN OUTLET NODE,FAN:ONOFF,CORE_TOP ZN FAN COIL FAN,Outlet,1
 Non-Parent Node Connection,PERIMETER_BOT_ZN_1 ZN FCU MIXED AIR NODE,FAN:ONOFF,PERIMETER_BOT_ZN_1 ZN FAN COIL FAN,Inlet,1
 Non-Parent Node Connection,PERIMETER_BOT_ZN_1 ZN FCU FAN OUTLET NODE,FAN:ONOFF,PERIMETER_BOT_ZN_1 ZN FAN COIL FAN,Outlet,1
 Non-Parent Node Connection,PERIMETER_BOT_ZN_2 ZN FCU MIXED AIR NODE,FAN:ONOFF,PERIMETER_BOT_ZN_2 ZN FAN COIL FAN,Inlet,1
 Non-Parent Node Connection,PERIMETER_BOT_ZN_2 ZN FCU FAN OUTLET NODE,FAN:ONOFF,PERIMETER_BOT_ZN_2 ZN FAN COIL FAN,Outlet,1
 Non-Parent Node Connection,PERIMETER_BOT_ZN_3 ZN FCU MIXED AIR NODE,FAN:ONOFF,PERIMETER_BOT_ZN_3 ZN FAN COIL FAN,Inlet,1
 Non-Parent Node Connection,PERIMETER_BOT_ZN_3 ZN FCU FAN OUTLET NODE,FAN:ONOFF,PERIMETER_BOT_ZN_3 ZN FAN COIL FAN,Outlet,1
 Non-Parent Node Connection,PERIMETER_BOT_ZN_4 ZN FCU MIXED AIR NODE,FAN:ONOFF,PERIMETER_BOT_ZN_4 ZN FAN COIL FAN,Inlet,1
 Non-Parent Node Connection,PERIMETER_BOT_ZN_4 ZN FCU FAN OUTLET NODE,FAN:ONOFF,PERIMETER_BOT_ZN_4 ZN FAN COIL FAN,Outlet,1
 Non-Parent Node Connection,PERIMETER_MID_ZN_1 ZN FCU MIXED AIR NODE,FAN:ONOFF,PERIMETER_MID_ZN_1 ZN FAN COIL FAN,Inlet,1
 Non-Parent Node Connection,PERIMETER_MID_ZN_1 ZN FCU FAN OUTLET NODE,FAN:ONOFF,PERIMETER_MID_ZN_1 ZN FAN COIL FAN,Outlet,1
 Non-Parent Node Connection,PERIMETER_MID_ZN_2 ZN FCU MIXED AIR NODE,FAN:ONOFF,PERIMETER_MID_ZN_2 ZN FAN COIL FAN,Inlet,1
 Non-Parent Node Connection,PERIMETER_MID_ZN_2 ZN FCU FAN OUTLET NODE,FAN:ONOFF,PERIMETER_MID_ZN_2 ZN FAN COIL FAN,Outlet,1
 Non-Parent Node Connection,PERIMETER_MID_ZN_3 ZN FCU MIXED AIR NODE,FAN:ONOFF,PERIMETER_MID_ZN_3 ZN FAN COIL FAN,Inlet,1
 Non-Parent Node Connection,PERIMETER_MID_ZN_3 ZN FCU FAN OUTLET NODE,FAN:ONOFF,PERIMETER_MID_ZN_3 ZN FAN COIL FAN,Outlet,1
 Non-Parent Node Connection,PERIMETER_MID_ZN_4 ZN FCU MIXED AIR NODE,FAN:ONOFF,PERIMETER_MID_ZN_4 ZN FAN COIL FAN,Inlet,1
 Non-Parent Node Connection,PERIMETER_MID_ZN_4 ZN FCU FAN OUTLET NODE,FAN:ONOFF,PERIMETER_MID_ZN_4 ZN FAN COIL FAN,Outlet,1
 Non-Parent Node Connection,PERIMETER_TOP_ZN_1 ZN FCU MIXED AIR NODE,FAN:ONOFF,PERIMETER_TOP_ZN_1 ZN FAN COIL FAN,Inlet,1
 Non-Parent Node Connection,PERIMETER_TOP_ZN_1 ZN FCU FAN OUTLET NODE,FAN:ONOFF,PERIMETER_TOP_ZN_1 ZN FAN COIL FAN,Outlet,1
 Non-Parent Node Connection,PERIMETER_TOP_ZN_2 ZN FCU MIXED AIR NODE,FAN:ONOFF,PERIMETER_TOP_ZN_2 ZN FAN COIL FAN,Inlet,1
 Non-Parent Node Connection,PERIMETER_TOP_ZN_2 ZN FCU FAN OUTLET NODE,FAN:ONOFF,PERIMETER_TOP_ZN_2 ZN FAN COIL FAN,Outlet,1
 Non-Parent Node Connection,PERIMETER_TOP_ZN_3 ZN FCU MIXED AIR NODE,FAN:ONOFF,PERIMETER_TOP_ZN_3 ZN FAN COIL FAN,Inlet,1
 Non-Parent Node Connection,PERIMETER_TOP_ZN_3 ZN FCU FAN OUTLET NODE,FAN:ONOFF,PERIMETER_TOP_ZN_3 ZN FAN COIL FAN,Outlet,1
 Non-Parent Node Connection,PERIMETER_TOP_ZN_4 ZN FCU MIXED AIR NODE,FAN:ONOFF,PERIMETER_TOP_ZN_4 ZN FAN COIL FAN,Inlet,1
 Non-Parent Node Connection,PERIMETER_TOP_ZN_4 ZN FCU FAN OUTLET NODE,FAN:ONOFF,PERIMETER_TOP_ZN_4 ZN FAN COIL FAN,Outlet,1
 Non-Parent Node Connection,15 ZONE DOAS CLG COIL OUTLET AIR NODE,CONTROLLER:WATERCOIL,15 ZONE DOAS CLG COIL CONTROLLER,Sensor,1
 Non-Parent Node Connection,15 ZONE DOAS CLG COIL INLET WATER NODE,CONTROLLER:WATERCOIL,15 ZONE DOAS CLG COIL CONTROLLER,Actuator,1
 Non-Parent Node Connection,15 ZONE DOAS HTG COIL OUTLET AIR NODE,CONTROLLER:WATERCOIL,15 ZONE DOAS HTG COIL CONTROLLER,Sensor,1
 Non-Parent Node Connection,15 ZONE DOAS HTG COIL INLET WATER NODE,CONTROLLER:WATERCOIL,15 ZONE DOAS HTG COIL CONTROLLER,Actuator,1
 Non-Parent Node Connection,15 ZONE DOAS DEMAND OUTLET NODE,AIRLOOPHVAC:ZONEMIXER,AIR LOOP HVAC ZONE MIXER 1,Outlet,1
 Non-Parent Node Connection,PERIMETER_TOP_ZN_3 ZN RETURN AIR NODE,AIRLOOPHVAC:ZONEMIXER,AIR LOOP HVAC ZONE MIXER 1,Inlet,1
 Non-Parent Node Connection,PERIMETER_TOP_ZN_2 ZN RETURN AIR NODE,AIRLOOPHVAC:ZONEMIXER,AIR LOOP HVAC ZONE MIXER 1,Inlet,1
 Non-Parent Node Connection,PERIMETER_MID_ZN_4 ZN RETURN AIR NODE,AIRLOOPHVAC:ZONEMIXER,AIR LOOP HVAC ZONE MIXER 1,Inlet,1
 Non-Parent Node Connection,PERIMETER_BOT_ZN_3 ZN RETURN AIR NODE,AIRLOOPHVAC:ZONEMIXER,AIR LOOP HVAC ZONE MIXER 1,Inlet,1
 Non-Parent Node Connection,PERIMETER_MID_ZN_3 ZN RETURN AIR NODE,AIRLOOPHVAC:ZONEMIXER,AIR LOOP HVAC ZONE MIXER 1,Inlet,1
 Non-Parent Node Connection,PERIMETER_BOT_ZN_2 ZN RETURN AIR NODE,AIRLOOPHVAC:ZONEMIXER,AIR LOOP HVAC ZONE MIXER 1,Inlet,1
 Non-Parent Node Connection,PERIMETER_MID_ZN_1 ZN RETURN AIR NODE,AIRLOOPHVAC:ZONEMIXER,AIR LOOP HVAC ZONE MIXER 1,Inlet,1
 Non-Parent Node Connection,CORE_MID ZN RETURN AIR NODE,AIRLOOPHVAC:ZONEMIXER,AIR LOOP HVAC ZONE MIXER 1,Inlet,1
 Non-Parent Node Connection,PERIMETER_BOT_ZN_1 ZN RETURN AIR NODE,AIRLOOPHVAC:ZONEMIXER,AIR LOOP HVAC ZONE MIXER 1,Inlet,1
 Non-Parent Node Connection,PERIMETER_TOP_ZN_1 ZN RETURN AIR NODE,AIRLOOPHVAC:ZONEMIXER,AIR LOOP HVAC ZONE MIXER 1,Inlet,1
 Non-Parent Node Connection,PERIMETER_MID_ZN_2 ZN RETURN AIR NODE,AIRLOOPHVAC:ZONEMIXER,AIR LOOP HVAC ZONE MIXER 1,Inlet,1
 Non-Parent Node Connection,PERIMETER_BOT_ZN_4 ZN RETURN AIR NODE,AIRLOOPHVAC:ZONEMIXER,AIR LOOP HVAC ZONE MIXER 1,Inlet,1
 Non-Parent Node Connection,CORE_TOP ZN RETURN AIR NODE,AIRLOOPHVAC:ZONEMIXER,AIR LOOP HVAC ZONE MIXER 1,Inlet,1
 Non-Parent Node Connection,PERIMETER_TOP_ZN_4 ZN RETURN AIR NODE,AIRLOOPHVAC:ZONEMIXER,AIR LOOP HVAC ZONE MIXER 1,Inlet,1
 Non-Parent Node Connection,CORE_BOTTOM ZN RETURN AIR NODE,AIRLOOPHVAC:ZONEMIXER,AIR LOOP HVAC ZONE MIXER 1,Inlet,1
 Non-Parent Node Connection,15 ZONE DOAS MIXED AIR NODE,CONTROLLER:OUTDOORAIR,15 ZONE DOAS OUTDOOR AIR CONTROLLER,Sensor,1
 Non-Parent Node Connection,15 ZONE DOAS OUTDOOR AIR NODE,CONTROLLER:OUTDOORAIR,15 ZONE DOAS OUTDOOR AIR CONTROLLER,Actuator,1
 Non-Parent Node Connection,15 ZONE DOAS HEAT EXCHANGER SECONDARY INLET AIR NODE,CONTROLLER:OUTDOORAIR,15 ZONE DOAS OUTDOOR AIR CONTROLLER,Actuator,1
 Non-Parent Node Connection,DOAS EXHAUST FAN OUTLET AIR NODE,CONTROLLER:OUTDOORAIR,15 ZONE DOAS OUTDOOR AIR CONTROLLER,Sensor,1
 Non-Parent Node Connection,15 ZONE DOAS OUTDOOR AIR NODE,HEATEXCHANGER:AIRTOAIR:SENSIBLEANDLATENT,15 ZONE DOAS HEAT EXCHANGER,Inlet,1
 Non-Parent Node Connection,15 ZONE DOAS HEAT EXCHANGER PRIMARY OUTLET AIR NODE,HEATEXCHANGER:AIRTOAIR:SENSIBLEANDLATENT,15 ZONE DOAS HEAT EXCHANGER,Outlet,1
 Non-Parent Node Connection,15 ZONE DOAS HEAT EXCHANGER SECONDARY INLET AIR NODE,HEATEXCHANGER:AIRTOAIR:SENSIBLEANDLATENT,15 ZONE DOAS HEAT EXCHANGER,Inlet,2
 Non-Parent Node Connection,15 ZONE DOAS RELIEF AIR NODE,HEATEXCHANGER:AIRTOAIR:SENSIBLEANDLATENT,15 ZONE DOAS HEAT EXCHANGER,Outlet,2
 Non-Parent Node Connection,NREL ZNE READY 2017 WATERCOOLED  ROTARY SCREW CHILLER 0 SUPPLY INLET WATER NODE,CHILLER:ELECTRIC:EIR,NREL ZNE READY 2017 WATERCOOLED  ROTARY SCREW CHILLER 0,Inlet,1
 Non-Parent Node Connection,NREL ZNE READY 2017 WATERCOOLED  ROTARY SCREW CHILLER 0 SUPPLY OUTLET WATER NODE,CHILLER:ELECTRIC:EIR,NREL ZNE READY 2017 WATERCOOLED  ROTARY SCREW CHILLER 0,Outlet,1
 Non-Parent Node Connection,NREL ZNE READY 2017 WATERCOOLED  ROTARY SCREW CHILLER 0 DEMAND INLET WATER NODE,CHILLER:ELECTRIC:EIR,NREL ZNE READY 2017 WATERCOOLED  ROTARY SCREW CHILLER 0,Inlet,2
 Non-Parent Node Connection,NREL ZNE READY 2017 WATERCOOLED  ROTARY SCREW CHILLER 0 DEMAND OUTLET WATER NODE,CHILLER:ELECTRIC:EIR,NREL ZNE READY 2017 WATERCOOLED  ROTARY SCREW CHILLER 0,Outlet,2
 Non-Parent Node Connection,PROPELLER OR AXIAL VARIABLE SPEED FAN OPEN COOLING TOWER INLET WATER NODE,COOLINGTOWER:VARIABLESPEED,PROPELLER OR AXIAL VARIABLE SPEED FAN OPEN COOLING TOWER,Inlet,1
 Non-Parent Node Connection,PROPELLER OR AXIAL VARIABLE SPEED FAN OPEN COOLING TOWER OUTLET WATER NODE,COOLINGTOWER:VARIABLESPEED,PROPELLER OR AXIAL VARIABLE SPEED FAN OPEN COOLING TOWER,Outlet,1
 Non-Parent Node Connection,BOILER INLET WATER NODE,BOILER:HOTWATER,BOILER,Inlet,1
 Non-Parent Node Connection,BOILER OUTLET WATER NODE,BOILER:HOTWATER,BOILER,Outlet,1
 Non-Parent Node Connection,CHILLED WATER LOOP SECONDARY PUMP INLET WATER NODE,PUMP:VARIABLESPEED,CHILLED WATER LOOP SECONDARY PUMP,Inlet,1
 Non-Parent Node Connection,CHILLED WATER LOOP SECONDARY PUMP OUTLET WATER NODE,PUMP:VARIABLESPEED,CHILLED WATER LOOP SECONDARY PUMP,Outlet,1
 Non-Parent Node Connection,HOT WATER LOOP SUPPLY INLET NODE,PUMP:VARIABLESPEED,HOT WATER LOOP PUMP,Inlet,1
 Non-Parent Node Connection,HOT WATER LOOP PUMP OUTLET WATER NODE,PUMP:VARIABLESPEED,HOT WATER LOOP PUMP,Outlet,1
 Non-Parent Node Connection,CHILLED WATER LOOP SUPPLY INLET NODE,PUMP:CONSTANTSPEED,CHILLED WATER LOOP PRIMARY PUMP,Inlet,1
 Non-Parent Node Connection,CHILLED WATER LOOP PRIMARY PUMP OUTLET WATER NODE,PUMP:CONSTANTSPEED,CHILLED WATER LOOP PRIMARY PUMP,Outlet,1
 Non-Parent Node Connection,CONDENSER WATER LOOP SUPPLY INLET NODE,PUMP:CONSTANTSPEED,CONDENSER WATER LOOP CONSTANT PUMP,Inlet,1
 Non-Parent Node Connection,CONDENSER WATER LOOP CONSTANT PUMP OUTLET WATER NODE,PUMP:CONSTANTSPEED,CONDENSER WATER LOOP CONSTANT PUMP,Outlet,1
 Non-Parent Node Connection,MAIN SERVICE WATER LOOP SUPPLY INLET NODE,PUMP:CONSTANTSPEED,SERVICE WATER LOOP PUMP,Inlet,1
 Non-Parent Node Connection,SERVICE WATER LOOP PUMP OUTLET WATER NODE,PUMP:CONSTANTSPEED,SERVICE WATER LOOP PUMP,Outlet,1
