{
  "completed_at": "20171023T150239Z",
  "completed_status": "Success",
  "created_at": "2017-10-23 08:55:20 -0600",
  "current_step": 26,
  "description": "Autogenerated 2",
  "eplusout_err": "Program Version,EnergyPlus, Version 8.8.0-7c3bbe4830, YMD=2017.10.23 08:55,IDD_Version 8.8.0\n   ** Warning ** Sizing:System=\"AEDG AIR LOOP HVAC BUILDING STORY 1\", invalid combination of inputs.\n   **   ~~~   ** Type of Load to Size On = VENTILATIONREQUIREMENT and System Outdoor Air Method = VENTILATIONRATEPROCEDURE.\n   **   ~~~   ** Resetting System Outdoor Air Method to ZoneSum.\n   ** Warning ** Sizing:System=\"AEDG AIR LOOP HVAC BUILDING STORY 2\", invalid combination of inputs.\n   **   ~~~   ** Type of Load to Size On = VENTILATIONREQUIREMENT and System Outdoor Air Method = VENTILATIONRATEPROCEDURE.\n   **   ~~~   ** Resetting System Outdoor Air Method to ZoneSum.\n   ************* Beginning Zone Sizing Calculations\n   ** Warning ** ProcessScheduleInput: ScheduleTypeLimits=\"CONTROL TYPE\", Unit Type=\"CONTROLMODE\" is invalid.\n   ** Warning ** ProcessScheduleInput: ScheduleTypeLimits=\"CONTROLMODE\", Unit Type=\"CONTROLMODE\" is invalid.\n   ** Warning ** ProcessScheduleInput: ScheduleTypeLimits=\"LINEARPOWERDENSITY\", Unit Type=\"LINEARPOWERDENSITY\" is invalid.\n   ** Warning ** ProcessScheduleInput: ScheduleTypeLimits=\"VOLUMETRICFLOWRATE\", Unit Type=\"VOLUMETRICFLOWRATE\" is invalid.\n   ** Warning ** ProcessScheduleInput: Schedule:Day:Interval=\"AEDG K-12 HVAC AVAILABILITY SCHEDULE SUMMER DESIGN DAY\", Blank Schedule Type Limits Name input -- will not be validated.\n   ** Warning ** ProcessScheduleInput: Schedule:Day:Interval=\"AEDG K-12 HVAC AVAILABILITY SCHEDULE SUMMER WEEKDAY\", Blank Schedule Type Limits Name input -- will not be validated.\n   ** Warning ** ProcessScheduleInput: Schedule:Day:Interval=\"AEDG K-12 HVAC AVAILABILITY SCHEDULE WEEKDAY\", Blank Schedule Type Limits Name input -- will not be validated.\n   ** Warning ** ProcessScheduleInput: Schedule:Day:Interval=\"AEDG K-12 HVAC AVAILABILITY SCHEDULE WEEKEND\", Blank Schedule Type Limits Name input -- will not be validated.\n   ** Warning ** ProcessScheduleInput: Schedule:Day:Interval=\"AEDG K-12 HVAC AVAILABILITY SCHEDULE WINTER DESIGN DAY\", Blank Schedule Type Limits Name input -- will not be validated.\n   ** Warning ** ProcessScheduleInput: Schedule:Day:Interval=\"SCHEDULE DAY 48\", Blank Schedule Type Limits Name input -- will not be validated.\n   ** Warning ** ProcessScheduleInput: Schedule:Day:Interval=\"SCHEDULE DAY 49\", Blank Schedule Type Limits Name input -- will not be validated.\n   ** Warning ** ProcessScheduleInput: Schedule:Day:Interval=\"SCHEDULE DAY 50\", Blank Schedule Type Limits Name input -- will not be validated.\n   ** Warning ** ProcessScheduleInput: Schedule:Day:Interval=\"SCHEDULE DAY 51\", Blank Schedule Type Limits Name input -- will not be validated.\n   ** Warning ** ProcessScheduleInput: Schedule:Day:Interval=\"SCHEDULE DAY 52\", Blank Schedule Type Limits Name input -- will not be validated.\n   ** Warning ** ProcessScheduleInput: Schedule:Day:Interval=\"SCHEDULE DAY 53\", Blank Schedule Type Limits Name input -- will not be validated.\n   ** Warning ** ProcessScheduleInput: Schedule:Day:Interval=\"SCHEDULE DAY 54\", Blank Schedule Type Limits Name input -- will not be validated.\n   ** Warning ** ProcessScheduleInput: Schedule:Day:Interval=\"SCHEDULE DAY 55\", Blank Schedule Type Limits Name input -- will not be validated.\n   ** Warning ** ProcessScheduleInput: Schedule:Day:Interval=\"SCHEDULE DAY 56\", Blank Schedule Type Limits Name input -- will not be validated.\n   ** Warning ** ProcessScheduleInput: Schedule:Day:Interval=\"SCHEDULE DAY 57\", Blank Schedule Type Limits Name input -- will not be validated.\n   ** Warning ** ProcessScheduleInput: Schedule:Day:Interval=\"SCHEDULE DAY 58\", Blank Schedule Type Limits Name input -- will not be validated.\n   ** Warning ** ProcessScheduleInput: Schedule:Day:Interval=\"SCHEDULE DAY 59\", Blank Schedule Type Limits Name input -- will not be validated.\n   ** Warning ** ProcessScheduleInput: Schedule:Day:Interval=\"SCHEDULE DAY 60\", Blank Schedule Type Limits Name input -- will not be validated.\n   ** Warning ** ProcessScheduleInput: Schedule:Day:Interval=\"SCHEDULE DAY 61\", Blank Schedule Type Limits Name input -- will not be validated.\n   ** Warning ** ProcessScheduleInput: Schedule:Day:Interval=\"SCHEDULE DAY 62\", Blank Schedule Type Limits Name input -- will not be validated.\n   ** Warning ** ProcessScheduleInput: Schedule:Day:Interval=\"SCHEDULE DAY 63\", Blank Schedule Type Limits Name input -- will not be validated.\n   ** Warning ** ProcessScheduleInput: Schedule:Day:Interval=\"SCHEDULE DAY 64\", Blank Schedule Type Limits Name input -- will not be validated.\n   ** Warning ** ProcessScheduleInput: Schedule:Day:Interval=\"SCHEDULE DAY 65\", Blank Schedule Type Limits Name input -- will not be validated.\n   ** Warning ** ProcessScheduleInput: Schedule:Day:Interval=\"SCHEDULE DAY 66\", Blank Schedule Type Limits Name input -- will not be validated.\n   ** Warning ** ProcessScheduleInput: Schedule:Day:Interval=\"SCHEDULE DAY 67\", Blank Schedule Type Limits Name input -- will not be validated.\n   ** Warning ** ProcessScheduleInput: Schedule:Day:Interval=\"ZEDG SWH-LATENT-FRACTION-SCHEDULE ALL DAYS\", Blank Schedule Type Limits Name input -- will not be validated.\n   ** Warning ** ProcessScheduleInput: Schedule:Day:Interval=\"ZEDG SWH-SENSIBLE-FRACTION-SCHEDULE ALL DAYS\", Blank Schedule Type Limits Name input -- will not be validated.\n   ** Warning ** ProcessScheduleInput: Schedule:Day:Interval=\"ZEDG SWH-TARGET-TEMPERATURE-SCHEDULE ALL DAYS\", Blank Schedule Type Limits Name input -- will not be validated.\n   ** Warning ** ProcessScheduleInput: Schedule:Year=\"AEDG K-12 HVAC AVAILABILITY SCHEDULE\", Blank Schedule Type Limits Name input -- will not be validated.\n   ** Warning ** ProcessScheduleInput: Schedule:Year=\"ZEDG SWH-LATENT-FRACTION-SCHEDULE\", Blank Schedule Type Limits Name input -- will not be validated.\n   ** Warning ** ProcessScheduleInput: Schedule:Year=\"ZEDG SWH-SENSIBLE-FRACTION-SCHEDULE\", Blank Schedule Type Limits Name input -- will not be validated.\n   ** Warning ** ProcessScheduleInput: Schedule:Year=\"ZEDG SWH-TARGET-TEMPERATURE-SCHEDULE\", Blank Schedule Type Limits Name input -- will not be validated.\n   ** Warning ** ProcessScheduleInput: Schedule:Constant=\"ALWAYS OFF DISCRETE\", Blank Schedule Type Limits Name input -- will not be validated.\n   ** Warning ** ProcessScheduleInput: Schedule:Constant=\"ALWAYS ON CONTINUOUS\", Blank Schedule Type Limits Name input -- will not be validated.\n   ** Warning ** CalculateZoneVolume: 11 zones are not fully enclosed. For more details use:  Output:Diagnostics,DisplayExtrawarnings; \n   ** Warning ** CheckUsedConstructions: There are 6 nominally unused constructions in input.\n   **   ~~~   ** For explicit details on each unused construction, use Output:Diagnostics,DisplayExtraWarnings;\n   ** Warning ** GetDaylightingControls: Fraction of Zone controlled by the Daylighting reference points is < 1.0.\n   **   ~~~   ** ..discovered in \"Daylighting:Controls\" for Zone=\"THERMAL ZONE: ART_CLASS\", only 0.44 of the zone is controlled.\n   ** Warning ** GetDaylightingControls: Fraction of Zone controlled by the Daylighting reference points is < 1.0.\n   **   ~~~   ** ..discovered in \"Daylighting:Controls\" for Zone=\"THERMAL ZONE: BATHROOMS 1\", only 0.40 of the zone is controlled.\n   ** Warning ** GetDaylightingControls: Fraction of Zone controlled by the Daylighting reference points is < 1.0.\n   **   ~~~   ** ..discovered in \"Daylighting:Controls\" for Zone=\"THERMAL ZONE: CAFETERIA\", only 0.27 of the zone is controlled.\n   ** Warning ** GetDaylightingControls: Fraction of Zone controlled by the Daylighting reference points is < 1.0.\n   **   ~~~   ** ..discovered in \"Daylighting:Controls\" for Zone=\"THERMAL ZONE: CORNER_CLASS_1_POD_1\", only 0.44 of the zone is controlled.\n   ** Warning ** GetDaylightingControls: Fraction of Zone controlled by the Daylighting reference points is < 1.0.\n   **   ~~~   ** ..discovered in \"Daylighting:Controls\" for Zone=\"THERMAL ZONE: CORNER_CLASS_1_POD_2\", only 0.44 of the zone is controlled.\n   ** Warning ** GetDaylightingControls: Fraction of Zone controlled by the Daylighting reference points is < 1.0.\n   **   ~~~   ** ..discovered in \"Daylighting:Controls\" for Zone=\"THERMAL ZONE: CORNER_CLASS_1_POD_3\", only 0.44 of the zone is controlled.\n   ** Warning ** GetDaylightingControls: Fraction of Zone controlled by the Daylighting reference points is < 1.0.\n   **   ~~~   ** ..discovered in \"Daylighting:Controls\" for Zone=\"THERMAL ZONE: CORNER_CLASS_1_POD_4\", only 0.44 of the zone is controlled.\n   ** Warning ** GetDaylightingControls: Fraction of Zone controlled by the Daylighting reference points is < 1.0.\n   **   ~~~   ** ..discovered in \"Daylighting:Controls\" for Zone=\"THERMAL ZONE: CORNER_CLASS_2_POD_1\", only 0.44 of the zone is controlled.\n   ** Warning ** GetDaylightingControls: Fraction of Zone controlled by the Daylighting reference points is < 1.0.\n   **   ~~~   ** ..discovered in \"Daylighting:Controls\" for Zone=\"THERMAL ZONE: CORNER_CLASS_2_POD_2\", only 0.44 of the zone is controlled.\n   ** Warning ** GetDaylightingControls: Fraction of Zone controlled by the Daylighting reference points is < 1.0.\n   **   ~~~   ** ..discovered in \"Daylighting:Controls\" for Zone=\"THERMAL ZONE: CORNER_CLASS_2_POD_3\", only 0.44 of the zone is controlled.\n   ** Warning ** GetDaylightingControls: Fraction of Zone controlled by the Daylighting reference points is < 1.0.\n   **   ~~~   ** ..discovered in \"Daylighting:Controls\" for Zone=\"THERMAL ZONE: CORNER_CLASS_2_POD_4\", only 0.44 of the zone is controlled.\n   ** Warning ** GetDaylightingControls: Fraction of Zone controlled by the Daylighting reference points is < 1.0.\n   **   ~~~   ** ..discovered in \"Daylighting:Controls\" for Zone=\"THERMAL ZONE: LOBBY\", only 0.44 of the zone is controlled.\n   ** Warning ** GetDaylightingControls: Fraction of Zone controlled by the Daylighting reference points is < 1.0.\n   **   ~~~   ** ..discovered in \"Daylighting:Controls\" for Zone=\"THERMAL ZONE: LOBBY 1\", only 0.44 of the zone is controlled.\n   ** Warning ** GetDaylightingControls: Fraction of Zone controlled by the Daylighting reference points is < 1.0.\n   **   ~~~   ** ..discovered in \"Daylighting:Controls\" for Zone=\"THERMAL ZONE: MEDIA_CENTER\", only 0.19 of the zone is controlled.\n   ** Warning ** GetDaylightingControls: Fraction of Zone controlled by the Daylighting reference points is < 1.0.\n   **   ~~~   ** ..discovered in \"Daylighting:Controls\" for Zone=\"THERMAL ZONE: MULT_CLASS_1_POD_1\", only 0.44 of the zone is controlled.\n   ** Warning ** GetDaylightingControls: Fraction of Zone controlled by the Daylighting reference points is < 1.0.\n   **   ~~~   ** ..discovered in \"Daylighting:Controls\" for Zone=\"THERMAL ZONE: MULT_CLASS_1_POD_2\", only 0.44 of the zone is controlled.\n   ** Warning ** GetDaylightingControls: Fraction of Zone controlled by the Daylighting reference points is < 1.0.\n   **   ~~~   ** ..discovered in \"Daylighting:Controls\" for Zone=\"THERMAL ZONE: MULT_CLASS_1_POD_3\", only 0.44 of the zone is controlled.\n   ** Warning ** GetDaylightingControls: Fraction of Zone controlled by the Daylighting reference points is < 1.0.\n   **   ~~~   ** ..discovered in \"Daylighting:Controls\" for Zone=\"THERMAL ZONE: MULT_CLASS_1_POD_4\", only 0.44 of the zone is controlled.\n   ** Warning ** GetDaylightingControls: Fraction of Zone controlled by the Daylighting reference points is < 1.0.\n   **   ~~~   ** ..discovered in \"Daylighting:Controls\" for Zone=\"THERMAL ZONE: MULT_CLASS_2_POD_1\", only 0.44 of the zone is controlled.\n   ** Warning ** GetDaylightingControls: Fraction of Zone controlled by the Daylighting reference points is < 1.0.\n   **   ~~~   ** ..discovered in \"Daylighting:Controls\" for Zone=\"THERMAL ZONE: MULT_CLASS_2_POD_2\", only 0.44 of the zone is controlled.\n   ** Warning ** GetDaylightingControls: Fraction of Zone controlled by the Daylighting reference points is < 1.0.\n   **   ~~~   ** ..discovered in \"Daylighting:Controls\" for Zone=\"THERMAL ZONE: MULT_CLASS_2_POD_3\", only 0.44 of the zone is controlled.\n   ** Warning ** GetDaylightingControls: Fraction of Zone controlled by the Daylighting reference points is < 1.0.\n   **   ~~~   ** ..discovered in \"Daylighting:Controls\" for Zone=\"THERMAL ZONE: MULT_CLASS_2_POD_4\", only 0.44 of the zone is controlled.\n   ** Warning ** GetDaylightingControls: Fraction of Zone controlled by the Daylighting reference points is < 1.0.\n   **   ~~~   ** ..discovered in \"Daylighting:Controls\" for Zone=\"THERMAL ZONE: OFFICES\", only 0.19 of the zone is controlled.\n   ** Warning ** GetSimpleAirModelInputs: ZoneInfiltration:DesignFlowRate=\"THERMAL ZONE: MECH MECH  - ENVELOPE INFILTRATION\", Design Flow Rate Calculation Method specifies Flow per Exterior Surface Area, but Exterior Wall Area = 0.  0 Infiltration will result.\n   ************* Beginning System Sizing Calculations\n   ** Warning ** Since Zone Minimum Air Flow Input Method = CONSTANT, input for Fixed Minimum Air Flow Rate will be ignored.\n   **   ~~~   ** Occurs in AirTerminal:SingleDuct:VAV:NoReheat = AIR TERMINAL SINGLE DUCT VAV NO REHEAT 15\n   ** Warning ** Since Zone Minimum Air Flow Input Method = CONSTANT, input for Fixed Minimum Air Flow Rate will be ignored.\n   **   ~~~   ** Occurs in AirTerminal:SingleDuct:VAV:NoReheat = AIR TERMINAL SINGLE DUCT VAV NO REHEAT 9\n   ** Warning ** Since Zone Minimum Air Flow Input Method = CONSTANT, input for Fixed Minimum Air Flow Rate will be ignored.\n   **   ~~~   ** Occurs in AirTerminal:SingleDuct:VAV:NoReheat = AIR TERMINAL SINGLE DUCT VAV NO REHEAT 29\n   ** Warning ** Since Zone Minimum Air Flow Input Method = CONSTANT, input for Fixed Minimum Air Flow Rate will be ignored.\n   **   ~~~   ** Occurs in AirTerminal:SingleDuct:VAV:NoReheat = AIR TERMINAL SINGLE DUCT VAV NO REHEAT 32\n   ** Warning ** Since Zone Minimum Air Flow Input Method = CONSTANT, input for Fixed Minimum Air Flow Rate will be ignored.\n   **   ~~~   ** Occurs in AirTerminal:SingleDuct:VAV:NoReheat = AIR TERMINAL SINGLE DUCT VAV NO REHEAT 11\n   ** Warning ** Since Zone Minimum Air Flow Input Method = CONSTANT, input for Fixed Minimum Air Flow Rate will be ignored.\n   **   ~~~   ** Occurs in AirTerminal:SingleDuct:VAV:NoReheat = AIR TERMINAL SINGLE DUCT VAV NO REHEAT 18\n   ** Warning ** Since Zone Minimum Air Flow Input Method = CONSTANT, input for Fixed Minimum Air Flow Rate will be ignored.\n   **   ~~~   ** Occurs in AirTerminal:SingleDuct:VAV:NoReheat = AIR TERMINAL SINGLE DUCT VAV NO REHEAT 4\n   ** Warning ** Since Zone Minimum Air Flow Input Method = CONSTANT, input for Fixed Minimum Air Flow Rate will be ignored.\n   **   ~~~   ** Occurs in AirTerminal:SingleDuct:VAV:NoReheat = AIR TERMINAL SINGLE DUCT VAV NO REHEAT 27\n   ** Warning ** Since Zone Minimum Air Flow Input Method = CONSTANT, input for Fixed Minimum Air Flow Rate will be ignored.\n   **   ~~~   ** Occurs in AirTerminal:SingleDuct:VAV:NoReheat = AIR TERMINAL SINGLE DUCT VAV NO REHEAT 5\n   ** Warning ** Since Zone Minimum Air Flow Input Method = CONSTANT, input for Fixed Minimum Air Flow Rate will be ignored.\n   **   ~~~   ** Occurs in AirTerminal:SingleDuct:VAV:NoReheat = AIR TERMINAL SINGLE DUCT VAV NO REHEAT 17\n   ** Warning ** Since Zone Minimum Air Flow Input Method = CONSTANT, input for Fixed Minimum Air Flow Rate will be ignored.\n   **   ~~~   ** Occurs in AirTerminal:SingleDuct:VAV:NoReheat = AIR TERMINAL SINGLE DUCT VAV NO REHEAT 20\n   ** Warning ** Since Zone Minimum Air Flow Input Method = CONSTANT, input for Fixed Minimum Air Flow Rate will be ignored.\n   **   ~~~   ** Occurs in AirTerminal:SingleDuct:VAV:NoReheat = AIR TERMINAL SINGLE DUCT VAV NO REHEAT 25\n   ** Warning ** Since Zone Minimum Air Flow Input Method = CONSTANT, input for Fixed Minimum Air Flow Rate will be ignored.\n   **   ~~~   ** Occurs in AirTerminal:SingleDuct:VAV:NoReheat = AIR TERMINAL SINGLE DUCT VAV NO REHEAT 7\n   ** Warning ** Since Zone Minimum Air Flow Input Method = CONSTANT, input for Fixed Minimum Air Flow Rate will be ignored.\n   **   ~~~   ** Occurs in AirTerminal:SingleDuct:VAV:NoReheat = AIR TERMINAL SINGLE DUCT VAV NO REHEAT 21\n   ** Warning ** Since Zone Minimum Air Flow Input Method = CONSTANT, input for Fixed Minimum Air Flow Rate will be ignored.\n   **   ~~~   ** Occurs in AirTerminal:SingleDuct:VAV:NoReheat = AIR TERMINAL SINGLE DUCT VAV NO REHEAT 2\n   ** Warning ** Since Zone Minimum Air Flow Input Method = CONSTANT, input for Fixed Minimum Air Flow Rate will be ignored.\n   **   ~~~   ** Occurs in AirTerminal:SingleDuct:VAV:NoReheat = AIR TERMINAL SINGLE DUCT VAV NO REHEAT 23\n   ** Warning ** Since Zone Minimum Air Flow Input Method = CONSTANT, input for Fixed Minimum Air Flow Rate will be ignored.\n   **   ~~~   ** Occurs in AirTerminal:SingleDuct:VAV:NoReheat = AIR TERMINAL SINGLE DUCT VAV NO REHEAT 33\n   ** Warning ** Since Zone Minimum Air Flow Input Method = CONSTANT, input for Fixed Minimum Air Flow Rate will be ignored.\n   **   ~~~   ** Occurs in AirTerminal:SingleDuct:VAV:NoReheat = AIR TERMINAL SINGLE DUCT VAV NO REHEAT 31\n   ** Warning ** Since Zone Minimum Air Flow Input Method = CONSTANT, input for Fixed Minimum Air Flow Rate will be ignored.\n   **   ~~~   ** Occurs in AirTerminal:SingleDuct:VAV:NoReheat = AIR TERMINAL SINGLE DUCT VAV NO REHEAT 12\n   ** Warning ** Since Zone Minimum Air Flow Input Method = CONSTANT, input for Fixed Minimum Air Flow Rate will be ignored.\n   **   ~~~   ** Occurs in AirTerminal:SingleDuct:VAV:NoReheat = AIR TERMINAL SINGLE DUCT VAV NO REHEAT 30\n   ** Warning ** Since Zone Minimum Air Flow Input Method = CONSTANT, input for Fixed Minimum Air Flow Rate will be ignored.\n   **   ~~~   ** Occurs in AirTerminal:SingleDuct:VAV:NoReheat = AIR TERMINAL SINGLE DUCT VAV NO REHEAT 3\n   ** Warning ** Since Zone Minimum Air Flow Input Method = CONSTANT, input for Fixed Minimum Air Flow Rate will be ignored.\n   **   ~~~   ** Occurs in AirTerminal:SingleDuct:VAV:NoReheat = AIR TERMINAL SINGLE DUCT VAV NO REHEAT 28\n   ** Warning ** Since Zone Minimum Air Flow Input Method = CONSTANT, input for Fixed Minimum Air Flow Rate will be ignored.\n   **   ~~~   ** Occurs in AirTerminal:SingleDuct:VAV:NoReheat = AIR TERMINAL SINGLE DUCT VAV NO REHEAT 10\n   ** Warning ** Since Zone Minimum Air Flow Input Method = CONSTANT, input for Fixed Minimum Air Flow Rate will be ignored.\n   **   ~~~   ** Occurs in AirTerminal:SingleDuct:VAV:NoReheat = AIR TERMINAL SINGLE DUCT VAV NO REHEAT 16\n   ** Warning ** Since Zone Minimum Air Flow Input Method = CONSTANT, input for Fixed Minimum Air Flow Rate will be ignored.\n   **   ~~~   ** Occurs in AirTerminal:SingleDuct:VAV:NoReheat = AIR TERMINAL SINGLE DUCT VAV NO REHEAT 1\n   ** Warning ** Since Zone Minimum Air Flow Input Method = CONSTANT, input for Fixed Minimum Air Flow Rate will be ignored.\n   **   ~~~   ** Occurs in AirTerminal:SingleDuct:VAV:NoReheat = AIR TERMINAL SINGLE DUCT VAV NO REHEAT 19\n   ** Warning ** Since Zone Minimum Air Flow Input Method = CONSTANT, input for Fixed Minimum Air Flow Rate will be ignored.\n   **   ~~~   ** Occurs in AirTerminal:SingleDuct:VAV:NoReheat = AIR TERMINAL SINGLE DUCT VAV NO REHEAT 6\n   ** Warning ** Since Zone Minimum Air Flow Input Method = CONSTANT, input for Fixed Minimum Air Flow Rate will be ignored.\n   **   ~~~   ** Occurs in AirTerminal:SingleDuct:VAV:NoReheat = AIR TERMINAL SINGLE DUCT VAV NO REHEAT 24\n   ** Warning ** Since Zone Minimum Air Flow Input Method = CONSTANT, input for Fixed Minimum Air Flow Rate will be ignored.\n   **   ~~~   ** Occurs in AirTerminal:SingleDuct:VAV:NoReheat = AIR TERMINAL SINGLE DUCT VAV NO REHEAT 13\n   ** Warning ** Since Zone Minimum Air Flow Input Method = CONSTANT, input for Fixed Minimum Air Flow Rate will be ignored.\n   **   ~~~   ** Occurs in AirTerminal:SingleDuct:VAV:NoReheat = AIR TERMINAL SINGLE DUCT VAV NO REHEAT 22\n   ** Warning ** Since Zone Minimum Air Flow Input Method = CONSTANT, input for Fixed Minimum Air Flow Rate will be ignored.\n   **   ~~~   ** Occurs in AirTerminal:SingleDuct:VAV:NoReheat = AIR TERMINAL SINGLE DUCT VAV NO REHEAT 14\n   ** Warning ** Since Zone Minimum Air Flow Input Method = CONSTANT, input for Fixed Minimum Air Flow Rate will be ignored.\n   **   ~~~   ** Occurs in AirTerminal:SingleDuct:VAV:NoReheat = AIR TERMINAL SINGLE DUCT VAV NO REHEAT 26\n   ** Warning ** Since Zone Minimum Air Flow Input Method = CONSTANT, input for Fixed Minimum Air Flow Rate will be ignored.\n   **   ~~~   ** Occurs in AirTerminal:SingleDuct:VAV:NoReheat = AIR TERMINAL SINGLE DUCT VAV NO REHEAT 8\n   ************* Beginning Plant Sizing Calculations\n   ** Warning ** SizeWaterCoil: Coil=\"COIL COOLING WATER 10\", Cooling Coil has leaving humidity ratio > entering humidity ratio.\n   **   ~~~   **     Wair,in =  8.230150E-003\n   **   ~~~   **     Wair,out = 8.500000E-003\n   **   ~~~   ** ....coil leaving humidity ratio will be reset to:\n   **   ~~~   **     Wair,out = 8.230150E-003\n   ** Warning ** SizeWaterCoil: Coil=\"COIL COOLING WATER 34\", Cooling Coil has leaving humidity ratio > entering humidity ratio.\n   **   ~~~   **     Wair,in =  8.160985E-003\n   **   ~~~   **     Wair,out = 8.500000E-003\n   **   ~~~   ** ....coil leaving humidity ratio will be reset to:\n   **   ~~~   **     Wair,out = 8.160985E-003\n   ** Warning ** SizeWaterCoil: Coil=\"COIL COOLING WATER 26\", Cooling Coil has leaving humidity ratio > entering humidity ratio.\n   **   ~~~   **     Wair,in =  8.451086E-003\n   **   ~~~   **     Wair,out = 8.500000E-003\n   **   ~~~   ** ....coil leaving humidity ratio will be reset to:\n   **   ~~~   **     Wair,out = 8.451086E-003\n   ** Warning ** SizeWaterCoil: Coil=\"COIL COOLING WATER 32\", Cooling Coil has leaving humidity ratio > entering humidity ratio.\n   **   ~~~   **     Wair,in =  8.473512E-003\n   **   ~~~   **     Wair,out = 8.500000E-003\n   **   ~~~   ** ....coil leaving humidity ratio will be reset to:\n   **   ~~~   **     Wair,out = 8.473512E-003\n   ** Warning ** SizeWaterCoil: Coil=\"COIL COOLING WATER 9\", Cooling Coil has leaving humidity ratio > entering humidity ratio.\n   **   ~~~   **     Wair,in =  8.450026E-003\n   **   ~~~   **     Wair,out = 8.500000E-003\n   **   ~~~   ** ....coil leaving humidity ratio will be reset to:\n   **   ~~~   **     Wair,out = 8.450026E-003\n   ** Warning ** SizeWaterCoil: Coil=\"COIL COOLING WATER 30\", Cooling Coil has leaving humidity ratio > entering humidity ratio.\n   **   ~~~   **     Wair,in =  8.473502E-003\n   **   ~~~   **     Wair,out = 8.500000E-003\n   **   ~~~   ** ....coil leaving humidity ratio will be reset to:\n   **   ~~~   **     Wair,out = 8.473502E-003\n   ** Warning ** SizeWaterCoil: Coil=\"COIL COOLING WATER 35\", Cooling Coil has leaving humidity ratio > entering humidity ratio.\n   **   ~~~   **     Wair,in =  8.357870E-003\n   **   ~~~   **     Wair,out = 8.500000E-003\n   **   ~~~   ** ....coil leaving humidity ratio will be reset to:\n   **   ~~~   **     Wair,out = 8.357870E-003\n   ** Warning ** SizeWaterCoil: Coil=\"COIL COOLING WATER 25\", Cooling Coil has leaving humidity ratio > entering humidity ratio.\n   **   ~~~   **     Wair,in =  8.346369E-003\n   **   ~~~   **     Wair,out = 8.500000E-003\n   **   ~~~   ** ....coil leaving humidity ratio will be reset to:\n   **   ~~~   **     Wair,out = 8.346369E-003\n   ** Warning ** SizeWaterCoil: Coil=\"COIL COOLING WATER 22\", Cooling Coil has leaving humidity ratio > entering humidity ratio.\n   **   ~~~   **     Wair,in =  8.443659E-003\n   **   ~~~   **     Wair,out = 8.500000E-003\n   **   ~~~   ** ....coil leaving humidity ratio will be reset to:\n   **   ~~~   **     Wair,out = 8.443659E-003\n   ** Warning ** SizeWaterCoil: Coil=\"COIL COOLING WATER 28\", Cooling Coil has leaving humidity ratio > entering humidity ratio.\n   **   ~~~   **     Wair,in =  8.354991E-003\n   **   ~~~   **     Wair,out = 8.500000E-003\n   **   ~~~   ** ....coil leaving humidity ratio will be reset to:\n   **   ~~~   **     Wair,out = 8.354991E-003\n   ** Warning ** In calculating the design coil UA for Coil:Cooling:Water COIL COOLING WATER 12\n   **   ~~~   ** the apparatus dew-point is below the coil design inlet water temperature;\n   **   ~~~   ** the coil outlet design conditions will be changed to correct the problem.\n   **   ~~~   ** The initial design conditions are: Tair,in = 23.2945\n   **   ~~~   **                                    Wair,in = 1.012029E-002\n   **   ~~~   **                                    Twater,in = 6.7000\n   **   ~~~   **                                    Tair,out = 14.0000\n   **   ~~~   **                                    Wair,out = 8.500000E-003\n   **   ~~~   ** The revised design conditions are: Tair,out = 11.6300\n   **   ~~~   **                                    Wair,out = 9.458909E-003\n   ** Warning ** Controller:MechanicalVentilation=\"CONTROLLER MECHANICAL VENTILATION 1\", Zone OA/person rate\n   **   ~~~   ** For Zone=\"THERMAL ZONE: BATHROOMS\".\n   **   ~~~   ** Zone outside air per person rate not set in Design Specification Outdoor Air Object=\"BATHROOMS OA DESIGN SPEC\".\n   ** Warning ** Controller:MechanicalVentilation=\"CONTROLLER MECHANICAL VENTILATION 1\", Zone OA/person rate\n   **   ~~~   ** For Zone=\"THERMAL ZONE: CORRIDOR_POD_1\".\n   **   ~~~   ** Zone outside air per person rate not set in Design Specification Outdoor Air Object=\"CORRIDOR OA DESIGN SPEC\".\n   ** Warning ** Controller:MechanicalVentilation=\"CONTROLLER MECHANICAL VENTILATION 1\", Zone OA/person rate\n   **   ~~~   ** For Zone=\"THERMAL ZONE: CORRIDOR_POD_3\".\n   **   ~~~   ** Zone outside air per person rate not set in Design Specification Outdoor Air Object=\"CORRIDOR OA DESIGN SPEC\".\n   ** Warning ** Controller:MechanicalVentilation=\"CONTROLLER MECHANICAL VENTILATION 1\", Zone OA/person rate\n   **   ~~~   ** For Zone=\"THERMAL ZONE: LOBBY\".\n   **   ~~~   ** Zone outside air per person rate not set in Design Specification Outdoor Air Object=\"LOBBY OA DESIGN SPEC\".\n   ** Warning ** Controller:MechanicalVentilation=\"CONTROLLER MECHANICAL VENTILATION 1\", Zone OA/person rate\n   **   ~~~   ** For Zone=\"THERMAL ZONE: MAIN_CORRIDOR\".\n   **   ~~~   ** Zone outside air per person rate not set in Design Specification Outdoor Air Object=\"CORRIDOR OA DESIGN SPEC\".\n   ** Warning ** Controller:MechanicalVentilation=\"CONTROLLER MECHANICAL VENTILATION 1\", Zone OA/person rate\n   **   ~~~   ** For Zone=\"THERMAL ZONE: MECH\".\n   **   ~~~   ** Zone outside air per person rate not set in Design Specification Outdoor Air Object=\"MECH OA DESIGN SPEC\".\n   ** Warning ** Controller:MechanicalVentilation=\"CONTROLLER MECHANICAL VENTILATION 2\", Zone OA/person rate\n   **   ~~~   ** For Zone=\"THERMAL ZONE: BATHROOMS 1\".\n   **   ~~~   ** Zone outside air per person rate not set in Design Specification Outdoor Air Object=\"BATHROOMS OA DESIGN SPEC\".\n   ** Warning ** Controller:MechanicalVentilation=\"CONTROLLER MECHANICAL VENTILATION 2\", Zone OA/person rate\n   **   ~~~   ** For Zone=\"THERMAL ZONE: CORRIDOR_POD_2\".\n   **   ~~~   ** Zone outside air per person rate not set in Design Specification Outdoor Air Object=\"CORRIDOR OA DESIGN SPEC\".\n   ** Warning ** Controller:MechanicalVentilation=\"CONTROLLER MECHANICAL VENTILATION 2\", Zone OA/person rate\n   **   ~~~   ** For Zone=\"THERMAL ZONE: CORRIDOR_POD_4\".\n   **   ~~~   ** Zone outside air per person rate not set in Design Specification Outdoor Air Object=\"CORRIDOR OA DESIGN SPEC\".\n   ** Warning ** Controller:MechanicalVentilation=\"CONTROLLER MECHANICAL VENTILATION 2\", Zone OA/person rate\n   **   ~~~   ** For Zone=\"THERMAL ZONE: LOBBY 1\".\n   **   ~~~   ** Zone outside air per person rate not set in Design Specification Outdoor Air Object=\"LOBBY OA DESIGN SPEC\".\n   ** Warning ** Controller:MechanicalVentilation=\"CONTROLLER MECHANICAL VENTILATION 2\", Zone OA/person rate\n   **   ~~~   ** For Zone=\"THERMAL ZONE: MAIN_CORRIDOR 1\".\n   **   ~~~   ** Zone outside air per person rate not set in Design Specification Outdoor Air Object=\"CORRIDOR OA DESIGN SPEC\".\n   ** Warning ** Controller:MechanicalVentilation=\"CONTROLLER MECHANICAL VENTILATION 3\", Zone OA/person rate\n   **   ~~~   ** For Zone=\"THERMAL ZONE: KITCHEN\".\n   **   ~~~   ** Zone outside air per person rate not set in Design Specification Outdoor Air Object=\"KITCHEN OA DESIGN SPEC\".\n   ** Warning ** SizeWaterCoil: Coil=\"COIL COOLING WATER 1\", Cooling Coil has leaving humidity ratio > entering humidity ratio.\n   **   ~~~   **     Wair,in =  5.430301E-003\n   **   ~~~   **     Wair,out = 1.022833E-002\n   **   ~~~   ** ....coil leaving humidity ratio will be reset to:\n   **   ~~~   **     Wair,out = 5.430301E-003\n   ** Warning ** SizeWaterCoil: Coil=\"COIL COOLING WATER 2\", Cooling Coil has leaving humidity ratio > entering humidity ratio.\n   **   ~~~   **     Wair,in =  5.430300E-003\n   **   ~~~   **     Wair,out = 1.022833E-002\n   **   ~~~   ** ....coil leaving humidity ratio will be reset to:\n   **   ~~~   **     Wair,out = 5.430300E-003\n   ** Warning ** SizeWaterCoil: Coil=\"COIL COOLING WATER 4\", Cooling Coil has leaving humidity ratio > entering humidity ratio.\n   **   ~~~   **     Wair,in =  5.430305E-003\n   **   ~~~   **     Wair,out = 1.022833E-002\n   **   ~~~   ** ....coil leaving humidity ratio will be reset to:\n   **   ~~~   **     Wair,out = 5.430305E-003\n   ** Warning ** SizeWaterCoil: Coil=\"COIL COOLING WATER 5\", Cooling Coil has leaving humidity ratio > entering humidity ratio.\n   **   ~~~   **     Wair,in =  5.430304E-003\n   **   ~~~   **     Wair,out = 1.022833E-002\n   **   ~~~   ** ....coil leaving humidity ratio will be reset to:\n   **   ~~~   **     Wair,out = 5.430304E-003\n   ** Warning ** SizeWaterCoil: Coil=\"COIL COOLING WATER 3\", Cooling Coil has leaving humidity ratio > entering humidity ratio.\n   **   ~~~   **     Wair,in =  5.430305E-003\n   **   ~~~   **     Wair,out = 1.022833E-002\n   **   ~~~   ** ....coil leaving humidity ratio will be reset to:\n   **   ~~~   **     Wair,out = 5.430305E-003\n   ** Warning ** GetElectricEIRChillerInput: Chiller:Electric:EIR=\"CHILLER ELECTRIC EIR 1\"\n   **   ~~~   ** Adding OutdoorAir:Node=CHILLER ELECTRIC EIR 1 INLET NODE FOR CONDENSER\n   ** Warning ** GetElectricEIRChillerInput: Chiller:Electric:EIR=\"CHILLER ELECTRIC EIR 1\"\n   **   ~~~   ** Energy input ratio as a function of temperature curve output is not equal to 1.0 (+ or - 10%) at reference conditions.\n   **   ~~~   ** Curve output at reference conditions = 0.852\n   ** Warning ** Missing temperature setpoint for LeavingSetpointModulated mode Boiler named BOILER HOT WATER 1\n   **   ~~~   **   A temperature setpoint is needed at the outlet node of a boiler in variable flow mode, use a SetpointManager\n   **   ~~~   **   The overall loop setpoint will be assumed for Boiler. The simulation continues ... \n   ** Warning ** Output:Meter: invalid Key Name=\"DISTRICTCOOLING:FACILITY\" - not found.\n   ** Warning ** Output:Meter: invalid Key Name=\"DISTRICTHEATING:FACILITY\" - not found.\n   ** Warning ** Output:Meter:MeterFileOnly requested for \"Electricity:Facility\" (TimeStep), already on \"Output:Meter\". Will report to both eplusout.eso and eplusout.mtr\n   ************* Testing Individual Branch Integrity\n   ************* All Branches passed integrity testing\n   ************* Testing Individual Supply Air Path Integrity\n   ************* All Supply Air Paths passed integrity testing\n   ************* Testing Individual Return Air Path Integrity\n   ************* All Return Air Paths passed integrity testing\n   ************* No node connection errors were found.\n   ************* Beginning Simulation\n   ** Severe  ** CheckWarmupConvergence: Loads Initialization, Zone=\"THERMAL ZONE: CAFETERIA\" did not converge after 120 warmup days.\n   **   ~~~   ** See Warmup Convergence Information in .eio file for details.\n   **   ~~~   ** ...Environment(RunPeriod)=\"RUN PERIOD 1\"\n   **   ~~~   ** ..Max Temp Comparison = 3.37E-004 vs Temperature Convergence Tolerance=0.20 - Pass Convergence\n   **   ~~~   ** ..Min Temp Comparison = 7.17E-002 vs Temperature Convergence Tolerance=0.20 - Pass Convergence\n   **   ~~~   ** ..Max Heat Load Comparison = 1.7199 vs Loads Convergence Tolerance=4.00E-002 - Fail Convergence\n   **   ~~~   ** ..Max Cool Load Comparison = 0.1284 vs Loads Convergence Tolerance=4.00E-002 - Fail Convergence\n   ** Warning ** Processing Monthly Tabular Reports: Variable names not valid for this simulation\n   **   ~~~   ** ...use Output:Diagnostics,DisplayExtraWarnings; to show more details on individual variables.\n   ** Warning ** GetInputEconomicsTariff: UtilityCost:Tariff=\"DISTRICTHEATING TARIFF\" missing meter\n   **   ~~~   ** Meter referenced is not present due to a lack of equipment that uses that energy source/meter:\"DISTRICTHEATING:FACILITY\".\n   ** Warning ** GetInputEconomicsTariff: UtilityCost:Tariff=\"DISTRICTCOOLING TARIFF\" missing meter\n   **   ~~~   ** Meter referenced is not present due to a lack of equipment that uses that energy source/meter:\"DISTRICTCOOLING:FACILITY\".\n   ** Warning ** ElectricEIRChillerModel - CHILLER:ELECTRIC:EIR \"CHILLER ELECTRIC EIR 1\" - Air Cooled Condenser Inlet Temperature below 0C.\n   **   ~~~   ** ... Outdoor Dry-bulb Condition =  -2.50 C. Occurrence info = RUN PERIOD 1, 01/01 03:23 - 03:30\n   ** Warning ** HeatExchanger:AirToAir:SensibleAndLatent \"HEAT EXCHANGER AIR TO AIR SENSIBLE AND LATENT 1\"\n   **   ~~~   ** Average air volume flow rate is <50% or >130% of the nominal HX supply air volume flow rate.\n   **   ~~~   ** Air volume flow rate ratio = 0.301. Environment=RUN PERIOD 1, at Simulation time=01/02 06:00 - 06:15\n   ** Warning ** HeatExchanger:AirToAir:SensibleAndLatent \"HEAT EXCHANGER AIR TO AIR SENSIBLE AND LATENT 2\"\n   **   ~~~   ** Average air volume flow rate is <50% or >130% of the nominal HX supply air volume flow rate.\n   **   ~~~   ** Air volume flow rate ratio = 0.301. Environment=RUN PERIOD 1, at Simulation time=01/02 06:00 - 06:15\n   ** Warning ** HeatExchanger:AirToAir:SensibleAndLatent \"HEAT EXCHANGER AIR TO AIR SENSIBLE AND LATENT 4\"\n   **   ~~~   ** Average air volume flow rate is <50% or >130% of the nominal HX supply air volume flow rate.\n   **   ~~~   ** Air volume flow rate ratio = 8.884E-002. Environment=RUN PERIOD 1, at Simulation time=01/02 06:00 - 06:15\n   ** Warning ** HeatExchanger:AirToAir:SensibleAndLatent \"HEAT EXCHANGER AIR TO AIR SENSIBLE AND LATENT 5\"\n   **   ~~~   ** Average air volume flow rate is <50% or >130% of the nominal HX supply air volume flow rate.\n   **   ~~~   ** Air volume flow rate ratio = 2.820E-002. Environment=RUN PERIOD 1, at Simulation time=01/02 06:00 - 06:15\n   ** Severe  ** HeatExchanger:AirToAir:SensibleAndLatent: \"HEAT EXCHANGER AIR TO AIR SENSIBLE AND LATENT 3\" unbalanced air volume flow ratio through the heat exchanger is greater than 2:1.\n   **   ~~~   ** ...HX Supply air to Exhaust air flow ratio = 19.41511.\n   **   ~~~   **  Environment=RUN PERIOD 1, at Simulation time=01/02 07:00 - 07:15\n   ** Warning ** HeatExchanger:AirToAir:SensibleAndLatent \"HEAT EXCHANGER AIR TO AIR SENSIBLE AND LATENT 3\"\n   **   ~~~   ** Average air volume flow rate is <50% or >130% of the nominal HX supply air volume flow rate.\n   **   ~~~   ** Air volume flow rate ratio = 0.158. Environment=RUN PERIOD 1, at Simulation time=01/02 07:00 - 07:15\n   ** Severe  ** HeatExchanger:AirToAir:SensibleAndLatent: \"HEAT EXCHANGER AIR TO AIR SENSIBLE AND LATENT 3\" unbalanced air volume flow ratio through the heat exchanger is greater than 2:1.\n   **   ~~~   ** ...HX Supply air to Exhaust air flow ratio = 19.41511.\n   **   ~~~   **  Environment=RUN PERIOD 1, at Simulation time=01/02 07:00 - 07:15\n   ** Warning ** SolveAirLoopControllers: Maximum iterations (50) exceeded for AEDG AIR LOOP HVAC THERMAL ZONE: KITCHEN, at RUN PERIOD 1, 01/12 10:45 - 11:00\n   ** Warning ** SolveAirLoopControllers: Maximum iterations (50) exceeded for AEDG AIR LOOP HVAC THERMAL ZONE: KITCHEN, at RUN PERIOD 1, 02/01 10:30 - 10:38\n   ** Warning ** SolveAirLoopControllers: Maximum iterations (50) exceeded for AEDG AIR LOOP HVAC THERMAL ZONE: KITCHEN, at RUN PERIOD 1, 02/01 10:45 - 10:49\n   ** Warning ** SolveAirLoopControllers: Maximum iterations (50) exceeded for AEDG AIR LOOP HVAC THERMAL ZONE: KITCHEN, at RUN PERIOD 1, 02/03 10:00 - 10:08\n   ** Warning ** SolveAirLoopControllers: Maximum iterations (50) exceeded for AEDG AIR LOOP HVAC THERMAL ZONE: KITCHEN, at RUN PERIOD 1, 05/15 06:04 - 06:06\n   ** Warning ** SolveAirLoopControllers: Maximum iterations (50) exceeded for AEDG AIR LOOP HVAC THERMAL ZONE: KITCHEN, at RUN PERIOD 1, 06/21 06:27 - 06:30\n   ** Warning ** SolveAirLoopControllers: Maximum iterations (50) exceeded for AEDG AIR LOOP HVAC THERMAL ZONE: KITCHEN, at RUN PERIOD 1, 06/28 06:12 - 06:15\n   ** Warning ** SolveAirLoopControllers: Maximum iterations (50) exceeded for AEDG AIR LOOP HVAC THERMAL ZONE: KITCHEN, at RUN PERIOD 1, 09/07 06:24 - 06:27\n   ** Warning ** SolveAirLoopControllers: Maximum iterations (50) exceeded for AEDG AIR LOOP HVAC THERMAL ZONE: KITCHEN, at RUN PERIOD 1, 11/28 11:00 - 11:03\n   ** Warning ** SolveAirLoopControllers: Maximum iterations (50) exceeded for AEDG AIR LOOP HVAC THERMAL ZONE: KITCHEN, at RUN PERIOD 1, 11/28 11:06 - 11:09\n   ** Warning ** SolveAirLoopControllers: Maximum iterations (50) exceeded for AEDG AIR LOOP HVAC THERMAL ZONE: KITCHEN, at RUN PERIOD 1, 11/28 11:09 - 11:12\n   ** Warning ** SolveAirLoopControllers: Maximum iterations (50) exceeded for AEDG AIR LOOP HVAC THERMAL ZONE: KITCHEN, at RUN PERIOD 1, 11/28 11:12 - 11:15\n   ** Warning ** SolveAirLoopControllers: Maximum iterations (50) exceeded for AEDG AIR LOOP HVAC THERMAL ZONE: KITCHEN, at RUN PERIOD 1, 11/28 11:15 - 11:30\n   ** Warning ** SolveAirLoopControllers: Maximum iterations (50) exceeded for AEDG AIR LOOP HVAC THERMAL ZONE: KITCHEN, at RUN PERIOD 1, 11/28 11:30 - 11:45\n   ** Warning ** The resource referenced by LifeCycleCost:UsePriceEscalation= \"U.S. AVG  COMMERCIAL-ELECTRICITY\" has no energy cost. \n   **   ~~~   ** ... It is likely that the wrong resource is used. The resource should match the meter used in Utility:Tariff.\n   ** Warning ** The resource referenced by LifeCycleCost:UsePriceEscalation= \"U.S. AVG  COMMERCIAL-DISTILLATE OIL\" has no energy cost. \n   **   ~~~   ** ... It is likely that the wrong resource is used. The resource should match the meter used in Utility:Tariff.\n   ** Warning ** The resource referenced by LifeCycleCost:UsePriceEscalation= \"U.S. AVG  COMMERCIAL-RESIDUAL OIL\" has no energy cost. \n   **   ~~~   ** ... It is likely that the wrong resource is used. The resource should match the meter used in Utility:Tariff.\n   ** Warning ** The resource referenced by LifeCycleCost:UsePriceEscalation= \"U.S. AVG  COMMERCIAL-COAL\" has no energy cost. \n   **   ~~~   ** ... It is likely that the wrong resource is used. The resource should match the meter used in Utility:Tariff.\n   ************* Simulation Error Summary *************\n   ** Warning ** The following Report Variables were requested but not generated -- check.rdd file\n   **   ~~~   ** Either the IDF did not contain these elements, the variable name is misspelled,\n   **   ~~~   ** or the requested variable is an advanced output which requires Output : Diagnostics, DisplayAdvancedReportVariables;\n   ************* Key=*, VarName=GAS EQUIPMENT TOTAL HEATING ENERGY, Frequency=Monthly\n   ************* There are 1 unused objects in input.\n   ************* Use Output:Diagnostics,DisplayUnusedObjects; to see them.\n   ************* There are 15 unused schedules in input.\n   ************* There are 37 unused week schedules in input.\n   ************* There are 93 unused day schedules in input.\n   ************* Use Output:Diagnostics,DisplayUnusedSchedules; to see them.\n   *************\n   ************* ===== Recurring Error Summary =====\n   ************* The following recurring error messages occurred.\n   *************\n   *************  ** Warning ** ElectricEIRChillerModel - CHILLER:ELECTRIC:EIR \"CHILLER ELECTRIC EIR 1\" - Air Cooled Condenser Inlet Temperature below 0C error continues.\n   *************  **   ~~~   **   This error occurred 1884 total times;\n   *************  **   ~~~   **   during Warmup 0 times;\n   *************  **   ~~~   **   during Sizing 0 times.\n   *************  **   ~~~   **   Max=-5.000000E-002 [C]  Min=-21.5 [C]\n   *************\n   *************  ** Warning ** HeatExchanger:AirToAir:SensibleAndLatent \"HEAT EXCHANGER AIR TO AIR SENSIBLE AND LATENT 1\":  Average air volume flow rate is <50% or >130% warning continues. Air flow rate ratio statistics follow.\n   *************  **   ~~~   **   This error occurred 259685 total times;\n   *************  **   ~~~   **   during Warmup 0 times;\n   *************  **   ~~~   **   during Sizing 0 times.\n   *************  **   ~~~   **   Max=0.499992  Min=0.294054\n   *************\n   *************  ** Warning ** HeatExchanger:AirToAir:SensibleAndLatent \"HEAT EXCHANGER AIR TO AIR SENSIBLE AND LATENT 2\":  Average air volume flow rate is <50% or >130% warning continues. Air flow rate ratio statistics follow.\n   *************  **   ~~~   **   This error occurred 174608 total times;\n   *************  **   ~~~   **   during Warmup 0 times;\n   *************  **   ~~~   **   during Sizing 0 times.\n   *************  **   ~~~   **   Max=0.499992  Min=0.294229\n   *************\n   *************  ** Warning ** HeatExchanger:AirToAir:SensibleAndLatent \"HEAT EXCHANGER AIR TO AIR SENSIBLE AND LATENT 4\":  Average air volume flow rate is <50% or >130% warning continues. Air flow rate ratio statistics follow.\n   *************  **   ~~~   **   This error occurred 947219 total times;\n   *************  **   ~~~   **   during Warmup 0 times;\n   *************  **   ~~~   **   during Sizing 0 times.\n   *************  **   ~~~   **   Max=0.499225  Min=2.605593E-002\n   *************\n   *************  ** Warning ** HeatExchanger:AirToAir:SensibleAndLatent \"HEAT EXCHANGER AIR TO AIR SENSIBLE AND LATENT 5\":  Average air volume flow rate is <50% or >130% warning continues. Air flow rate ratio statistics follow.\n   *************  **   ~~~   **   This error occurred 1064135 total times;\n   *************  **   ~~~   **   during Warmup 0 times;\n   *************  **   ~~~   **   during Sizing 0 times.\n   *************  **   ~~~   **   Max=0.499695  Min=8.261651E-003\n   *************\n   *************  ** Warning ** HeatExchanger:AirToAir:SensibleAndLatent \"HEAT EXCHANGER AIR TO AIR SENSIBLE AND LATENT 3\":  Average air volume flow rate is <50% or >130% warning continues. Air flow rate ratio statistics follow.\n   *************  **   ~~~   **   This error occurred 1329938 total times;\n   *************  **   ~~~   **   during Warmup 0 times;\n   *************  **   ~~~   **   during Sizing 0 times.\n   *************  **   ~~~   **   Max=0.499989  Min=3.019269E-002\n   *************\n   *************  ** Warning ** HeatExchanger:AirToAir:SensibleAndLatent \"HEAT EXCHANGER AIR TO AIR SENSIBLE AND LATENT 3\":  Unbalanced air volume flow ratio exceeds 2:1 warning continues. HX flow ratio statistics follow.\n   *************  **   ~~~   **   This error occurred 256210 total times;\n   *************  **   ~~~   **   during Warmup 0 times;\n   *************  **   ~~~   **   during Sizing 0 times.\n   *************  **   ~~~   **   Max=1607.739529  Min=2.000044\n   *************\n   *************\n   ************* ===== Final Error Summary =====\n   ************* The following error categories occurred.  Consider correcting or noting.\n   ************* Loads Initialization did not Converge\n   ************* ..1) very high thermal mass such as very thick concrete (solution: increase max number of warmup\n   ************* ..   days in the BUILDING object);\n   ************* ..2) moderate mass and inadequate space conditioning such that the building keeps getting warmer\n   ************* ..   and warmer on successive days (solution: add HVAC, check building thermal properties,\n   ************* ..   check if infiltration is included, make sure HVAC properly controlled);\n   ************* ..3) a soil layer modeled below the concrete slab - (solution remove this layer and read about\n   ************* ..   ground temperatures in the Auxiliary Programs document).\n   ************* ..4) unreasonable (too small) limits in the BUILDING object for temperature (.4 default) or\n   ************* ..   loads tolerances (.04 default)\n   ************* Nominally Unused Constructions\n   ************* ..The nominally unused constructions warning is provided to alert you to potential conditions that can cause\n   ************* ..extra time during simulation. Each construction is calculated by the algorithm indicated in the HeatBalanceAlgorithm\n   ************* ..object. You may remove the constructions indicated (when you use the DisplayExtraWarnings option).\n   *************\n   ************* EnergyPlus Warmup Error Summary. During Warmup: 0 Warning; 1 Severe Errors.\n   ************* EnergyPlus Sizing Error Summary. During Sizing: 99 Warning; 0 Severe Errors.\n   ************* EnergyPlus Completed Successfully-- 4033840 Warning; 3 Severe Errors; Elapsed Time=00hr 06min  5.18sec\n",
  "file_format_version": "0.0.1",
  "file_paths": [
    "../weather",
    "../seeds",
    "../seed"
  ],
  "hash": "6C9F0C51",
  "measure_paths": [
    "../measures"
  ],
  "name": "HVAC Fan Coil Air Cool",
  "osa_id": "fc1618ca-9b4f-4fdd-8f23-ad7e32c37bde",
  "osd_id": "b1649e23-aae4-4fa7-9926-8ab4b03d28f6",
  "run_directory": "./run",
  "seed_file": "ZEDG K12 Primary TSD seed.osm",
  "started_at": "20171023T145523Z",
  "steps": [
    {
      "arguments": {
        "climate_zone": "Lookup From Stat File",
        "weather_file_name": "USA_CO_Aurora-Buckley.Field.ANGB.724695_TMY3.epw"
      },
      "description": "Option 12 Description: Change the building location",
      "measure_dir_name": "ChangeBuildingLocation",
      "name": "Aurora CO",
      "result": {
        "completed_at": "20171023T145525Z",
        "measure_class_name": "ChangeBuildingLocation",
        "measure_display_name": "ChangeBuildingLocation",
        "measure_name": "change_building_location",
        "measure_taxonomy": "Whole Building.Space Types",
        "measure_type": "ModelMeasure",
        "measure_uid": "d4db4971-f5ba-11e3-a3ac-0800200c9a66",
        "measure_version_id": "cb3dfe89-a823-408f-929b-ac88123db9e8",
        "measure_version_modified": "20170911T163356Z",
        "measure_xml_checksum": "057E8D9D",
        "started_at": "20171023T145525Z",
        "stderr": "",
        "stdout": "[OpenStudio.Measure] <0> OSArgumentVector is deprecated, use OpenStudio::Measure::OSArgumentVector instead.\n[openstudio.setFileExtension] <0> Path p, '/Users/dgoldwas/Documents/GitHub/Personal/PAT_projects/PAT_RaceToZero_PrimarySchool/temp_data/analysis_fc1618ca-9b4f-4fdd-8f23-ad7e32c37bde/weather/USA_CO_Aurora-Buckley.Field.ANGB.724695_TMY3.ddy', has an unexpected file extension. Was expecting 'idf'.\n[openstudio.model.YearDescription] <1> 'UseWeatherFile' is not yet a supported option for YearDescription\n[openstudio.model.YearDescription] <1> 'UseWeatherFile' is not yet a supported option for YearDescription\n",
        "step_errors": [],
        "step_files": [],
        "step_final_condition": "The final weather file is Aurora Buckley Field Angb and the model has 3 design day objects.",
        "step_info": [
          "city is Aurora Buckley Field Angb. State is CO",
          "mean dry bulb is 9.95",
          "Adding object Aurora Buckley Field Angb Ann Clg .4% Condns DB=>MWB",
          "Adding object Aurora Buckley Field Angb Ann Clg .4% Condns WB=>MDB",
          "Adding object Aurora Buckley Field Angb Ann Htg 99.6% Condns DB",
          "Setting Climate Zone to 5B"
        ],
        "step_initial_condition": "The initial weather file is Fairbanks Intl Arpt and the model has 0 design day objects",
        "step_result": "Success",
        "step_values": [
          {
            "name": "weather_file_name",
            "value": "USA_CO_Aurora-Buckley.Field.ANGB.724695_TMY3.epw"
          },
          {
            "name": "climate_zone",
            "value": "Lookup From Stat File"
          }
        ],
        "step_warnings": []
      }
    },
    {
      "arguments": {
        "material_cost_ip": 0
      },
      "description": "Option 1 Description: Customized values for ZEDG - This measure removes all existing electric equipment from spaces recognized as primary or secondary school space types. One exception is that loads assigned directly to a space whre the load definition contains \"Elev\" or \"elev\" will be left alone. New electric equipment will be added based on the 50% K12 AEDG recommendations. Kitchen equipment wont' be altered by this measure. There is a stand alone AEDG measure specifically for the kitchen.",
      "measure_dir_name": "zedgk_12_electric_equipment",
      "name": "ZEDG Elec Equip",
      "result": {
        "completed_at": "20171023T145526Z",
        "measure_class_name": "ZEDGK12ElectricEquipment",
        "measure_display_name": "ZEDG K12 ElectricEquipment",
        "measure_name": "zedgk_12_electric_equipment",
        "measure_taxonomy": "Equipment.Electric Equipment",
        "measure_type": "ModelMeasure",
        "measure_uid": "d1fc10bc-0ae1-4e1b-b1ac-67fc3923b268",
        "measure_version_id": "a899014f-03cd-4e9a-97c3-5d2923c6611f",
        "measure_version_modified": "20171020T205858Z",
        "measure_xml_checksum": "8C4D4034",
        "started_at": "20171023T145526Z",
        "stderr": "",
        "stdout": "[OpenStudio.Measure] <0> OSArgumentVector is deprecated, use OpenStudio::Measure::OSArgumentVector instead.\n",
        "step_errors": [],
        "step_files": [],
        "step_final_condition": "The resulting building has an EPD 0.8 (W/ft^2).",
        "step_info": [
          "Changing EPD of Cafeteria space type to 0.3 (W/ft^2) from 0.5 (W/ft^2)",
          "Changing EPD of Corridor space type to 0.0 (W/ft^2) from 0.0 (W/ft^2)",
          "Changing EPD of Offices space type to 0.6 (W/ft^2) from 0.5 (W/ft^2)",
          "Kitchen equipment won't be altered by this measure. Run the ZEDG K12 Kitchen measure to apply kitchen recommendations.",
          "Couldn't map Art_Class to a recognized space type used in the ZEDG. Electric equipment levels for this SpaceType will not be altered.",
          "Changing EPD of Mech space type to 0.0 (W/ft^2) from 0.0 (W/ft^2)",
          "Changing EPD of Media_Center space type to 0.3 (W/ft^2) from 0.5 (W/ft^2)",
          "Changing EPD of Classroom space type to 0.8 (W/ft^2) from 1.4 (W/ft^2)",
          "Changing EPD of Lobby space type to 0.0 (W/ft^2) from 0.0 (W/ft^2)",
          "Changing EPD of Bathrooms space type to 0.0 (W/ft^2) from 0.0 (W/ft^2)",
          "Changing EPD of Gym space type to 0.0 (W/ft^2) from 0.0 (W/ft^2)"
        ],
        "step_initial_condition": "The building started with an EPD 1.0 (W/ft^2).",
        "step_result": "Success",
        "step_values": [
          {
            "name": "material_cost_ip",
            "value": 0
          }
        ],
        "step_warnings": []
      }
    },
    {
      "arguments": {
        "costTotal": 0
      },
      "description": "Option 1 Description",
      "measure_dir_name": "AedgK12ElectricEquipmentControls",
      "name": "AEDG Elec Equip Controls",
      "result": {
        "completed_at": "20171023T145526Z",
        "measure_class_name": "AedgK12ElectricEquipmentControls",
        "measure_display_name": "AedgK12ElectricEquipmentControls",
        "measure_name": "aedg_k_12_electric_equipment_controls",
        "measure_taxonomy": "Equipment.Equipment Controls",
        "measure_type": "ModelMeasure",
        "measure_uid": "285bc263-7429-4049-a0ce-f60fabf46eec",
        "measure_version_id": "c3624203-547e-4ded-a2b3-8469ae9d4e8c",
        "measure_version_modified": "20171020T205852Z",
        "measure_xml_checksum": "1F21832E",
        "started_at": "20171023T145526Z",
        "stderr": "",
        "stdout": "[OpenStudio.Measure] <0> OSArgumentVector is deprecated, use OpenStudio::Measure::OSArgumentVector instead.\n",
        "step_errors": [],
        "step_files": [],
        "step_final_condition": "Fractional schedule values for electric equipment in the final model excluding kitchens range from 0.15 to 0.60. K-12 Schools AEDG How to Implement Recommendations: PL2 Computer (Information Technology) Equipment, PL3 Staff and Occupant Equipment Control, PL4 Phantom/Parasitic Loads.",
        "step_info": [
          "Kitchen equipment is handled in its own measure, so Kitchen schedules won't be edited by this measure.",
          "Adjusting equipment schedules for Cafeteria.",
          "Adjusting equipment schedules for Corridor.",
          "Adjusting equipment schedules for Offices.",
          "Adjusting equipment schedules for Art_Class.",
          "Adjusting equipment schedules for Mech.",
          "Adjusting equipment schedules for Media_Center.",
          "Adjusting equipment schedules for Classroom.",
          "Adjusting equipment schedules for Lobby.",
          "Adjusting equipment schedules for Bathrooms.",
          "Adjusting equipment schedules for Gym."
        ],
        "step_initial_condition": "Fractional schedule values for equipment in the initial model excluding kitchens range from 0.40 to 0.60.",
        "step_result": "Success",
        "step_values": [
          {
            "name": "costTotal",
            "value": 0
          }
        ],
        "step_warnings": []
      }
    },
    {
      "arguments": {
        "material_cost_ip": 0
      },
      "description": "Option 1 Description",
      "measure_dir_name": "zedgk_12_interior_lighting",
      "name": "ZEDG Int Lighting",
      "result": {
        "completed_at": "20171023T145526Z",
        "measure_class_name": "ZEDGK12InteriorLighting",
        "measure_display_name": "ZEDG K12 Interior Lighting",
        "measure_name": "zedgk_12_interior_lighting",
        "measure_taxonomy": "Electric Lighting.Lighting Equipment",
        "measure_type": "ModelMeasure",
        "measure_uid": "d3283a8e-aee1-4b9d-9217-a7a988726fb4",
        "measure_version_id": "e25d4dce-0780-4282-939f-d3131e8e7133",
        "measure_version_modified": "20171020T205859Z",
        "measure_xml_checksum": "4B6FFB84",
        "started_at": "20171023T145526Z",
        "stderr": "",
        "stdout": "[OpenStudio.Measure] <0> OSArgumentVector is deprecated, use OpenStudio::Measure::OSArgumentVector instead.\n",
        "step_errors": [],
        "step_files": [],
        "step_final_condition": "The resulting building has an LPD 0.43 (W/ft^2).",
        "step_info": [
          "Changing LPD of Cafeteria space type to 0.4 (W/ft^2) from 0.9 (W/ft^2)",
          "Changing LPD of Corridor space type to 0.4 (W/ft^2) from 0.5 (W/ft^2)",
          "Changing LPD of Offices space type to 0.5 (W/ft^2) from 1.1 (W/ft^2)",
          "Changing LPD of Kitchen space type to 0.6 (W/ft^2) from 1.2 (W/ft^2)",
          "Couldn't map Art_Class to a recognized space type used in the ZEDG. Lighting levels for this SpaceType will not be altered.",
          "Changing LPD of Mech space type to 0.4 (W/ft^2) from 1.5 (W/ft^2)",
          "Changing LPD of Media_Center space type to 0.4 (W/ft^2) from 1.2 (W/ft^2)",
          "Changing LPD of Classroom space type to 0.4 (W/ft^2) from 1.4 (W/ft^2)",
          "Changing LPD of Lobby space type to 0.7 (W/ft^2) from 1.3 (W/ft^2)",
          "Changing LPD of Bathrooms space type to 0.4 (W/ft^2) from 0.9 (W/ft^2)",
          "Changing LPD of Gym space type to 0.5 (W/ft^2) from 1.4 (W/ft^2)"
        ],
        "step_initial_condition": "The building started with an LPD 1.11 (W/ft^2).",
        "step_result": "Success",
        "step_values": [
          {
            "name": "material_cost_ip",
            "value": 0
          }
        ],
        "step_warnings": []
      }
    },
    {
      "arguments": {
        "costTotal": 0
      },
      "description": "Option 1 Description",
      "measure_dir_name": "AedgK12InteriorLightingControls",
      "name": "AEDG Int Lighting Controls",
      "result": {
        "completed_at": "20171023T145526Z",
        "measure_class_name": "AedgK12InteriorLightingControls",
        "measure_display_name": "AedgK12InteriorLightingControls",
        "measure_name": "aedg_k_12_interior_lighting_controls",
        "measure_taxonomy": "Electric Lighting.Electric Lighting Controls",
        "measure_type": "ModelMeasure",
        "measure_uid": "9f395ee4-5f82-4ca6-8a50-cb854893827e",
        "measure_version_id": "2583e0be-47c3-47ef-bcc2-a70c321d684b",
        "measure_version_modified": "20171020T205853Z",
        "measure_xml_checksum": "9B7BB4D8",
        "started_at": "20171023T145526Z",
        "stderr": "",
        "stdout": "[OpenStudio.Measure] <0> OSArgumentVector is deprecated, use OpenStudio::Measure::OSArgumentVector instead.\n",
        "step_errors": [],
        "step_files": [],
        "step_final_condition": "Fractional schedule values for lights in the final model range from 0.17 to 0.77. K-12 Schools AEDG How to Implement Recommendations: EL8 Occupancy Sensors, EL9 Multilevel Switching or Dimming, EL11 Circuiting and Switching, EL12 Electrical Lighting Design for Schools, EL13 Classroom Lighting, EL14 Gym Lighting, EL15 Lighting for a Multipurpose Room, EL16 Lighting for a Library or Media Center, EL17 Corridor Lighting, EL18 Lighting for Offices and Teacher Support Rooms, EL19 Lighting for Locker Areas and Restrooms, EL20 Twenty-Four Hour Lighting.",
        "step_info": [
          "Adjusting lighting schedules for Cafeteria.",
          "Adjusting lighting schedules for Corridor.",
          "Adjusting lighting schedules for Offices.",
          "Adjusting lighting schedules for Kitchen.",
          "Adjusting lighting schedules for Art_Class.",
          "Adjusting lighting schedules for Mech.",
          "Adjusting lighting schedules for Media_Center.",
          "Adjusting lighting schedules for Classroom.",
          "Adjusting lighting schedules for Lobby.",
          "Adjusting lighting schedules for Bathrooms.",
          "Adjusting lighting schedules for Gym."
        ],
        "step_initial_condition": "Fractional schedule values for lights in the initial model range from 0.20 to 0.90.",
        "step_result": "Success",
        "step_values": [
          {
            "name": "costTotal",
            "value": 0
          }
        ],
        "step_warnings": []
      }
    },
    {
      "arguments": {
        "material_cost_insulation_increase_ip": 0
      },
      "description": "Option 1 Description: ZEDG version, currently only set for steel frame walls. This measure will modify existing exterior wall insulation levels based on construction type and climate zone. The exterior wall construction type and climate zone should be set in the model prior to using this measure. For mass and metal walls if an existing insulation layer can be found it will be increased, if not a new insulation layer will be added. For mass this will be at the exterior of the construction. For metal it will be added just behind the exterior layer. For steel and wood framed walls, insulation will be added to the exterior of the construction. ",
      "measure_dir_name": "zedgk_12_exterior_wall_construction",
      "name": "ZEDG Ext Wall",
      "result": {
        "completed_at": "20171023T145526Z",
        "measure_class_name": "ZEDGK12ExteriorWallConstruction",
        "measure_display_name": "ZEDG K12 ExteriorWallConstruction",
        "measure_name": "zedgk_12_exterior_wall_construction",
        "measure_taxonomy": "Envelope.Opaque",
        "measure_type": "ModelMeasure",
        "measure_uid": "39d1c328-0bbb-40ee-a18c-ba977b462a11",
        "measure_version_id": "ad55068c-3b1b-479e-8625-6cef78fd3e79",
        "measure_version_modified": "20171020T205858Z",
        "measure_xml_checksum": "5091078B",
        "started_at": "20171023T145526Z",
        "stderr": "",
        "stdout": "[OpenStudio.Measure] <0> OSArgumentVector is deprecated, use OpenStudio::Measure::OSArgumentVector instead.\n",
        "step_errors": [],
        "step_files": [],
        "step_final_condition": "23,411(ft^2) of constructions intended for exterior wall surfaces had insulation enhanced at a cost of $0.",
        "step_info": [
          "Wall insulation values based on Steel Framed walls.",
          "Using ASHRAE Climate zone 5B for AEDG recommendations.",
          "The R-value of Steel-Framed_R-13_Ext-wall has been increased from 7.22 to 19.23(ft^2*h*R/Btu) at a cost of $0.00. Increased performance was accomplished by adding a new material layer to the outside of Steel-Framed_R-13_Ext-wall."
        ],
        "step_initial_condition": "Starting R-values for constructions intended for exterior wall surfaces range from 7.22 to 7.22(ft^2*h*R/Btu).",
        "step_result": "Success",
        "step_values": [
          {
            "name": "material_cost_insulation_increase_ip",
            "value": 0
          }
        ],
        "step_warnings": []
      }
    },
    {
      "arguments": {
        "alter_sri": false,
        "material_cost_insulation_increase_ip": 0,
        "material_cost_sri_increase_ip": 0
      },
      "description": "Option 1 Description: ZEDG version, only setup for IEAD roof. This measure will modify existing roof insulation levels and Solar Reflective Index (SRI) values based on roof type and climate zone. The roof type and climate zone should be set in the model prior to using this measure. If your model uses an attic, all attic surfaces should have an \"Attic' intended surface type. For attics it doesn't matter what you put for \"Standards Construction Type\". The measure will check attic insulation where the attic is adjacent to other not attic spaces.",
      "measure_dir_name": "zedgk_12_roof_construction",
      "name": "ZEDG Roof",
      "result": {
        "completed_at": "20171023T145527Z",
        "measure_class_name": "ZEDGK12RoofConstruction",
        "measure_display_name": "ZEDG K12 RoofConstruction",
        "measure_name": "zedgk_12_roof_construction",
        "measure_taxonomy": "Envelope.Opaque",
        "measure_type": "ModelMeasure",
        "measure_uid": "d322d264-5855-4b20-bd3e-3c5e5032bc05",
        "measure_version_id": "cc3665ad-edad-4c99-be1b-6f90ce455c23",
        "measure_version_modified": "20171020T205859Z",
        "measure_xml_checksum": "5091078B",
        "started_at": "20171023T145526Z",
        "stderr": "",
        "stdout": "[OpenStudio.Measure] <0> OSArgumentVector is deprecated, use OpenStudio::Measure::OSArgumentVector instead.\n",
        "step_errors": [],
        "step_files": [],
        "step_final_condition": "52,261(ft^2) of constructions intended for roof surfaces had insulation enhanced at a cost of $0. 0(ft^2) of constructions intended for roof surfaces had the Solar Reflectance Index (SRI) enhanced at a cost of $0.",
        "step_info": [
          "Roof insulation values based on IEAD roof.",
          "Using ASHRAE Climate zone 5B for AEDG recommendations.",
          "For Climate Zone 5 Solar Reflectance Index (SRI) should comply with Standard 90.1.",
          "The R-value of IEAD_R-15 ci_Roof has been increased from 14.82 to 33.33(ft^2*h*R/Btu) at a cost of $0.00. Increased performance was accomplished by adjusting thermal resistance of Roof Insulation - adj."
        ],
        "step_initial_condition": "Starting R-values for constructions intended for insulated roof surfaces range from 14.82 to 14.82(ft^2*h*R/Btu). Starting Solar Reflectance Index (SRI) for constructions intended for exterior roof surfaces range from 32 to 32.",
        "step_result": "Success",
        "step_values": [
          {
            "name": "material_cost_insulation_increase_ip",
            "value": 0
          },
          {
            "name": "material_cost_sri_increase_ip",
            "value": 0
          },
          {
            "name": "alter_sri",
            "value": false
          }
        ],
        "step_warnings": []
      }
    },
    {
      "arguments": {
        "object": "*All Interior Partition Surfaces*"
      },
      "description": "Option 1 Description",
      "measure_dir_name": "AedgK12InteriorFinishes",
      "name": "AEDG Int Finishes",
      "result": {
        "completed_at": "20171023T145527Z",
        "measure_class_name": "AedgK12InteriorFinishes",
        "measure_display_name": "AedgK12InteriorFinishes",
        "measure_name": "aedg_k_12_interior_finishes",
        "measure_taxonomy": "Envelope.Opaque",
        "measure_type": "ModelMeasure",
        "measure_uid": "9165a1f8-9cd1-4492-b20b-5257c05fc5d9",
        "measure_version_id": "a23f990c-4d5d-426b-a17f-fbf8a497ae7f",
        "measure_version_modified": "20171020T205853Z",
        "measure_xml_checksum": "1E963D9C",
        "started_at": "20171023T145527Z",
        "stderr": "",
        "stdout": "[OpenStudio.Measure] <0> OSArgumentVector is deprecated, use OpenStudio::Measure::OSArgumentVector instead.\n",
        "step_errors": [],
        "step_files": [],
        "step_final_condition": "[\"Increased reflectance to 1 ceiling materials. \", \"Increased reflectance to 2 wall materials. \"] K-12 Schools AEDG How to Implement Recommendations: DL14 Interior Finishes for Daylighting.",
        "step_info": [
          "Increasing reflectance of Metal Decking - adj to AEDG ceiling target reflectance of 80%.",
          "Increasing reflectance of GP01 1/2 GYPSUM - adj to AEDG wall target reflectance of 70%.",
          "Increasing reflectance of 1/2IN Gypsum - adj to AEDG wall target reflectance of 70%."
        ],
        "step_initial_condition": "[\"Initial ceiling reflectance values ranged from 70.0 to 80.0 percent. \", \"Initial wall reflectance values ranged from 7.9999999999999964 to 50.0 percent. \", \"Initial floor reflectance values ranged from 19.999999999999996 to 19.999999999999996 percent. \"]",
        "step_result": "Success",
        "step_values": [
          {
            "name": "object",
            "value": "{fd0abd87-a04d-437e-a9d8-92a3ed9457d9}"
          }
        ],
        "step_warnings": []
      }
    },
    {
      "arguments": {
        "cost_daylight_glazing": 0,
        "cost_light_shelf": 0,
        "cost_shading_surface": 0,
        "cost_view_glazing": 0
      },
      "description": "Option 2 Description: This measure will remove all existing exterior windows, glass doors, and skylights from your model. They will be replaced with view and daylight windows as recommended by the Net Zero K12 recommendations. Windows on the south facade will have a exterior shading or light shelf surfaces depending on if they are view or daylight windows. East and west view windows will have internal shading controls. In spaces with daylighting controls daylight sensor will be added. The modeler should inspect where the sensors were placed, the recommended illuminance setpoint, and the fraction of the zones lighting controlled by the sensor.",
      "measure_dir_name": "zedgk_12_fenestration_and_daylighting_controls",
      "name": "ZEDG Fenistration with Daylighting",
      "result": {
        "completed_at": "20171023T145527Z",
        "measure_class_name": "ZEDGK12FenestrationAndDaylightingControls",
        "measure_display_name": "ZEDG K12 - Fenestration and Daylighting Controls",
        "measure_name": "zedgk_12_fenestration_and_daylighting_controls",
        "measure_taxonomy": "Envelope.Fenestration",
        "measure_type": "ModelMeasure",
        "measure_uid": "eb3bfd3d-64b6-4a9f-857d-3dd8a7becec5",
        "measure_version_id": "c1d4da88-8dcf-41cd-aaec-86ca3cf83f5e",
        "measure_version_modified": "20171020T205858Z",
        "measure_xml_checksum": "7D3EA3A9",
        "started_at": "20171023T145527Z",
        "stderr": "",
        "stdout": "[OpenStudio.Measure] <0> OSArgumentVector is deprecated, use OpenStudio::Measure::OSArgumentVector instead.\n",
        "step_errors": [],
        "step_files": [],
        "step_final_condition": "The building has a final window to wall ratio of 0.27. Cost increase due to this measure is $0.",
        "step_info": [
          "Created ZEDG-K12 View Glazing North construction. U-factor: 0.36(Btu/ft^2*h*R), SHGC: 0.36, VT: 0.3.",
          "Created ZEDG-K12 View Glazing South construction. U-factor: 0.36(Btu/ft^2*h*R), SHGC: 0.36, VT: 0.3.",
          "Created ZEDG-K12 View Glazing EastWest construction. U-factor: 0.36(Btu/ft^2*h*R), SHGC: 0.36, VT: 0.3.",
          "Created ZEDG-K12 Daylight Glazing South construction. U-factor: 0.36(Btu/ft^2*h*R), SHGC: 0.58, VT: 0.8.",
          "Created ZEDG-K12 Daylight Glazing North construction. U-factor: 0.36(Btu/ft^2*h*R), SHGC: 0.58, VT: 0.8.",
          "Created ZEDG-K12 LightShelf construction for light shelves. Visible absorptance is 0.3.",
          "Created ZEDG-K12 ExteriorShade construction for exterior shading surfaces.",
          "Adding shading control object to connect to east and west view windows.",
          "Removing existing translucent exterior surfaces.",
          "Adding new fenestration.",
          "Adding new daylighting control objects.",
          "7 surfaces had the window to wall ratio capped at 0.45. This may be due to a deep space or a space with limited exterior exposure."
        ],
        "step_initial_condition": "The building started with a window to wall ratio of 0.30.",
        "step_result": "Success",
        "step_values": [
          {
            "name": "cost_daylight_glazing",
            "value": 0
          },
          {
            "name": "cost_view_glazing",
            "value": 0
          },
          {
            "name": "cost_shading_surface",
            "value": 0
          },
          {
            "name": "cost_light_shelf",
            "value": 0
          }
        ],
        "step_warnings": []
      }
    },
    {
      "arguments": {
        "material_cost_insulation_increase_ip": 0
      },
      "description": "Option 1 Description: This measure is intended for use on opaque doors; if doors are glass they should be treated as windows. OpenStudio does have a unique object for overhead doors versus standard doors. This measure doesn't alter infiltration. There is a separate measure for infiltration. ",
      "measure_dir_name": "zedgk_12_exterior_door_construction",
      "name": "ZEDG Exterior Door",
      "result": {
        "completed_at": "20171023T145528Z",
        "measure_class_name": "ZEDGK12ExteriorDoorConstruction",
        "measure_display_name": "ZEDG K12 ExteriorDoorConstruction",
        "measure_name": "zedgk_12_exterior_door_construction",
        "measure_taxonomy": "Envelope.Opaque",
        "measure_type": "ModelMeasure",
        "measure_uid": "11c69bb4-3bea-4a7e-8a8e-fea4b5f71a1c",
        "measure_version_id": "81b5f932-2622-4a90-bb95-63aff3054ae4",
        "measure_version_modified": "20171023T063128Z",
        "measure_xml_checksum": "5091078B",
        "started_at": "20171023T145527Z",
        "stderr": "",
        "stdout": "[OpenStudio.Measure] <0> OSArgumentVector is deprecated, use OpenStudio::Measure::OSArgumentVector instead.\n",
        "step_errors": [],
        "step_files": [],
        "step_info": [
          "Using ASHRAE Climate zone 5B for AEDG recommendations.",
          "The model has no exterior doors"
        ],
        "step_result": "NA",
        "step_values": [
          {
            "name": "material_cost_insulation_increase_ip",
            "value": 0
          }
        ],
        "step_warnings": []
      }
    },
    {
      "arguments": {
        "costTotalEnvelopeInfiltration": 0
      },
      "description": "Option 1 Description",
      "measure_dir_name": "zedgk_12_envelope_infiltration",
      "name": "ZEDG Envelope Infiltration",
      "result": {
        "completed_at": "20171023T145528Z",
        "measure_class_name": "ZEDGK12EnvelopeInfiltration",
        "measure_display_name": "ZEDG K12 Envelope Infiltration",
        "measure_name": "zedgk_12_envelope_infiltration",
        "measure_taxonomy": "Envelope.Infiltration",
        "measure_type": "ModelMeasure",
        "measure_uid": "e6232b68-8c72-4986-8693-84c0fe1d00ec",
        "measure_version_id": "5a00c64f-687d-4042-bc39-882180c3baa5",
        "measure_version_modified": "20171020T205858Z",
        "measure_xml_checksum": "F85A5EF9",
        "started_at": "20171023T145528Z",
        "stderr": "",
        "stdout": "[OpenStudio.Measure] <0> OSArgumentVector is deprecated, use OpenStudio::Measure::OSArgumentVector instead.\n",
        "step_errors": [],
        "step_files": [],
        "step_final_condition": "The final model contains 11 space infiltration objects. Cost was increased by $0.00 for envelope infiltration.",
        "step_info": [
          "11 infiltration objects were removed.",
          "Adding a building default space type to hold space infiltration for spaces that previously didn't have a space type.",
          "Adding infiltration object to all spaces in model with value of 0.0375 (cfm/ft^2) of exterior surface area."
        ],
        "step_initial_condition": "The initial model contained 11 space infiltration objects.",
        "step_result": "Success",
        "step_values": [
          {
            "name": "costTotalEnvelopeInfiltration",
            "value": 0
          }
        ],
        "step_warnings": []
      }
    },
    {
      "arguments": {
        "costTotalSwhSystem": 0,
        "numberOfStudents": 650
      },
      "description": "Option 1 Description: Todo - update this to use electric. Measure replaces existing swh equipment (if any) with the swh equipment recommendations of the 50% K-12 AEDG.",
      "measure_dir_name": "zedgk_12_swh",
      "name": "ZEDG SWH Primary",
      "result": {
        "completed_at": "20171023T145528Z",
        "measure_class_name": "ZEDGK12SWH",
        "measure_display_name": "ZEDG K12 SWH",
        "measure_name": "zedgk_12_swh",
        "measure_taxonomy": "Service Water Heating.Water Heating",
        "measure_type": "ModelMeasure",
        "measure_uid": "d765082f-34fb-4b03-bd4e-e8e4a418ba2a",
        "measure_version_id": "f28b281f-57e4-43c0-b486-140b496f3b56",
        "measure_version_modified": "20171021T081702Z",
        "measure_xml_checksum": "2B3D3EB4",
        "started_at": "20171023T145528Z",
        "stderr": "",
        "stdout": "[OpenStudio.Measure] <0> OSArgumentVector is deprecated, use OpenStudio::Measure::OSArgumentVector instead.\n",
        "step_errors": [],
        "step_files": [],
        "step_final_condition": "The final model has 3 water use equipment objects",
        "step_info": [
          "Adding SWH to Kitchen.",
          "Adding SWH to 2 restrooms."
        ],
        "step_initial_condition": "The initial model has 0 water use equipment objects",
        "step_result": "Success",
        "step_values": [
          {
            "name": "costTotalSwhSystem",
            "value": 0
          },
          {
            "name": "numberOfStudents",
            "value": 650
          }
        ],
        "step_warnings": []
      }
    },
    {
      "arguments": {
        "costTotalKitchenSystem": 0,
        "numberOfStudents": 650
      },
      "description": "Option 1 Description: Todo - update this to use electric. Measure replaces existing kitchen equipment (if any) with refrigeration, electric, and gas equipment that align with the kitchen equipment recommendations of the 50% K-12 AEDG.",
      "measure_dir_name": "zedgk_12_kitchen",
      "name": "ZEDG Kitchen Primary",
      "result": {
        "completed_at": "20171023T145528Z",
        "measure_class_name": "ZEDGK12Kitchen",
        "measure_display_name": "ZEDG K12 Kitchen",
        "measure_name": "zedgk_12_kitchen",
        "measure_taxonomy": "Whole Building.Space Types",
        "measure_type": "ModelMeasure",
        "measure_uid": "6d9f212d-e859-4857-8ee7-1670de9c2bfb",
        "measure_version_id": "419d79c3-8cd1-4a1b-a6f9-a3295ad0c711",
        "measure_version_modified": "20171021T081658Z",
        "measure_xml_checksum": "CE83CD3D",
        "started_at": "20171023T145528Z",
        "stderr": "",
        "stdout": "[OpenStudio.Measure] <0> OSArgumentVector is deprecated, use OpenStudio::Measure::OSArgumentVector instead.\n",
        "step_errors": [],
        "step_files": [],
        "step_final_condition": "Identified Kitchen 1 as primary kitchen space, it has 1 electric equipment objects.",
        "step_info": [
          "Replacing argument named 'numberOfStudents' from current measure with a value of 650 from ZEDG SWH Primary.",
          "Adding an electrical load to Kitchen 1 of 43550 W",
          "Adding exhaust fan to Thermal Zone: Kitchen with maximum flow rate of 3500 ft^3/min"
        ],
        "step_initial_condition": "Identified Kitchen 1 as primary kitchen space,it has 0 electric equipment objects.",
        "step_result": "Success",
        "step_values": [
          {
            "name": "costTotalKitchenSystem",
            "value": 0
          },
          {
            "name": "numberOfStudents",
            "value": 650
          }
        ],
        "step_warnings": []
      }
    },
    {
      "arguments": {
        "costTotalExteriorLights": 0,
        "facadeLandscapeLighting": 10000,
        "lightingZone": "2 - Residential, Mixed Use",
        "parkingDrivesLighting": 20000,
        "target": "AEDG K-12 - Target",
        "walkwayPlazaSpecialLighting": 3250
      },
      "description": "Option 1 Description",
      "measure_dir_name": "AedgK12ExteriorLighting",
      "name": "AEDG Ext Lighting Primary",
      "result": {
        "completed_at": "20171023T145528Z",
        "measure_class_name": "AedgK12ExteriorLighting",
        "measure_display_name": "AedgK12ExteriorLighting",
        "measure_name": "aedg_k_12_exterior_lighting",
        "measure_taxonomy": "Electric Lighting.Lighting Equipment",
        "measure_type": "ModelMeasure",
        "measure_uid": "04fd62eb-3e9f-4bfc-98d8-7827b47e034a",
        "measure_version_id": "c78e2faf-5bfc-4be5-91cc-ad7b1e1df5a1",
        "measure_version_modified": "20171020T205853Z",
        "measure_xml_checksum": "2DDDDD82",
        "started_at": "20171023T145528Z",
        "stderr": "",
        "stdout": "[OpenStudio.Measure] <0> OSArgumentVector is deprecated, use OpenStudio::Measure::OSArgumentVector instead.\n",
        "step_errors": [],
        "step_files": [],
        "step_final_condition": "The final model had 3 exterior lights with a total power of  Watts. Cost of exterior lights are $0. K-12 Schools AEDG How to Implement Recommendations: EL20 Twenty-Four Hour Lighting, EL21 Exterior Lighting Power-Parking Lots and Drives, EL22 Exterior Lighting Power-Walkways, EL23 Decorative Faade Lighting, EL24 Sources, EL25 Controls.",
        "step_info": [
          "Setting Exterior Lights - Facade Definition to a design power of 500.0 Watts",
          "Setting Exterior Lights - Parking Definition to a design power of 1200.0 Watts",
[...]
          },
          {
            "name": "electricity_interior_equipment_ip",
            "units": "kWh",
            "value": 170999.3611111111
          },
          {
            "name": "electricity_exterior_equipment_ip",
            "units": "kWh",
            "value": 0
          },
          {
            "name": "electricity_fans_ip",
            "units": "kWh",
            "value": 38596.194444444445
          },
          {
            "name": "electricity_pumps_ip",
            "units": "kWh",
            "value": 23332.13333333333
          },
          {
            "name": "electricity_heat_rejection_ip",
            "units": "kWh",
            "value": 0
          },
          {
            "name": "electricity_humidification_ip",
            "units": "kWh",
            "value": 0
          },
          {
            "name": "electricity_heat_recovery_ip",
            "units": "kWh",
            "value": 0
          },
          {
            "name": "electricity_water_systems_ip",
            "units": "kWh",
            "value": 0
          },
          {
            "name": "electricity_refrigeration_ip",
            "units": "kWh",
            "value": 0
          },
          {
            "name": "electricity_generators_ip",
            "units": "kWh",
            "value": 0
          },
          {
            "name": "electricity_ip",
            "units": "kWh",
            "value": 406439.65
          },
          {
            "name": "natural_gas_heating_ip",
            "units": "MBtu",
            "value": 411.49243481778706
          },
          {
            "name": "natural_gas_cooling_ip",
            "units": "MBtu",
            "value": 0
          },
          {
            "name": "natural_gas_interior_lighting_ip",
            "units": "MBtu",
            "value": 0
          },
          {
            "name": "natural_gas_exterior_lighting_ip",
            "units": "MBtu",
            "value": 0
          },
          {
            "name": "natural_gas_interior_equipment_ip",
            "units": "MBtu",
            "value": 0
          },
          {
            "name": "natural_gas_exterior_equipment_ip",
            "units": "MBtu",
            "value": 0
          },
          {
            "name": "natural_gas_fans_ip",
            "units": "MBtu",
            "value": 0
          },
          {
            "name": "natural_gas_pumps_ip",
            "units": "MBtu",
            "value": 0
          },
          {
            "name": "natural_gas_heat_rejection_ip",
            "units": "MBtu",
            "value": 0
          },
          {
            "name": "natural_gas_humidification_ip",
            "units": "MBtu",
            "value": 0
          },
          {
            "name": "natural_gas_heat_recovery_ip",
            "units": "MBtu",
            "value": 0
          },
          {
            "name": "natural_gas_water_systems_ip",
            "units": "MBtu",
            "value": 127.95105554342761
          },
          {
            "name": "natural_gas_refrigeration_ip",
            "units": "MBtu",
            "value": 0
          },
          {
            "name": "natural_gas_generators_ip",
            "units": "MBtu",
            "value": 0
          },
          {
            "name": "natural_gas_ip",
            "units": "MBtu",
            "value": 539.4434903612147
          },
          {
            "name": "additional_fuel_heating_ip",
            "units": "MBtu",
            "value": 0
          },
          {
            "name": "additional_fuel_cooling_ip",
            "units": "MBtu",
            "value": 0
          },
          {
            "name": "additional_fuel_interior_lighting_ip",
            "units": "MBtu",
            "value": 0
          },
          {
            "name": "additional_fuel_exterior_lighting_ip",
            "units": "MBtu",
            "value": 0
          },
          {
            "name": "additional_fuel_interior_equipment_ip",
            "units": "MBtu",
            "value": 0
          },
          {
            "name": "additional_fuel_exterior_equipment_ip",
            "units": "MBtu",
            "value": 0
          },
          {
            "name": "additional_fuel_fans_ip",
            "units": "MBtu",
            "value": 0
          },
          {
            "name": "additional_fuel_pumps_ip",
            "units": "MBtu",
            "value": 0
          },
          {
            "name": "additional_fuel_heat_rejection_ip",
            "units": "MBtu",
            "value": 0
          },
          {
            "name": "additional_fuel_humidification_ip",
            "units": "MBtu",
            "value": 0
          },
          {
            "name": "additional_fuel_heat_recovery_ip",
            "units": "MBtu",
            "value": 0
          },
          {
            "name": "additional_fuel_water_systems_ip",
            "units": "MBtu",
            "value": 0
          },
          {
            "name": "additional_fuel_refrigeration_ip",
            "units": "MBtu",
            "value": 0
          },
          {
            "name": "additional_fuel_generators_ip",
            "units": "MBtu",
            "value": 0
          },
          {
            "name": "additional_fuel_ip",
            "units": "MBtu",
            "value": 0
          },
          {
            "name": "district_cooling_heating_ip",
            "units": "MBtu",
            "value": 0
          },
          {
            "name": "district_cooling_cooling_ip",
            "units": "MBtu",
            "value": 0
          },
          {
            "name": "district_cooling_interior_lighting_ip",
            "units": "MBtu",
            "value": 0
          },
          {
            "name": "district_cooling_exterior_lighting_ip",
            "units": "MBtu",
            "value": 0
          },
          {
            "name": "district_cooling_interior_equipment_ip",
            "units": "MBtu",
            "value": 0
          },
          {
            "name": "district_cooling_exterior_equipment_ip",
            "units": "MBtu",
            "value": 0
          },
          {
            "name": "district_cooling_fans_ip",
            "units": "MBtu",
            "value": 0
          },
          {
            "name": "district_cooling_pumps_ip",
            "units": "MBtu",
            "value": 0
          },
          {
            "name": "district_cooling_heat_rejection_ip",
            "units": "MBtu",
            "value": 0
          },
          {
            "name": "district_cooling_humidification_ip",
            "units": "MBtu",
            "value": 0
          },
          {
            "name": "district_cooling_heat_recovery_ip",
            "units": "MBtu",
            "value": 0
          },
          {
            "name": "district_cooling_water_systems_ip",
            "units": "MBtu",
            "value": 0
          },
          {
            "name": "district_cooling_refrigeration_ip",
            "units": "MBtu",
            "value": 0
          },
          {
            "name": "district_cooling_generators_ip",
            "units": "MBtu",
            "value": 0
          },
          {
            "name": "district_cooling_ip",
            "units": "MBtu",
            "value": 0
          },
          {
            "name": "district_heating_heating_ip",
            "units": "MBtu",
            "value": 0
          },
          {
            "name": "district_heating_cooling_ip",
            "units": "MBtu",
            "value": 0
          },
          {
            "name": "district_heating_interior_lighting_ip",
            "units": "MBtu",
            "value": 0
          },
          {
            "name": "district_heating_exterior_lighting_ip",
            "units": "MBtu",
            "value": 0
          },
          {
            "name": "district_heating_interior_equipment_ip",
            "units": "MBtu",
            "value": 0
          },
          {
            "name": "district_heating_exterior_equipment_ip",
            "units": "MBtu",
            "value": 0
          },
          {
            "name": "district_heating_fans_ip",
            "units": "MBtu",
            "value": 0
          },
          {
            "name": "district_heating_pumps_ip",
            "units": "MBtu",
            "value": 0
          },
          {
            "name": "district_heating_heat_rejection_ip",
            "units": "MBtu",
            "value": 0
          },
          {
            "name": "district_heating_humidification_ip",
            "units": "MBtu",
            "value": 0
          },
          {
            "name": "district_heating_heat_recovery_ip",
            "units": "MBtu",
            "value": 0
          },
          {
            "name": "district_heating_water_systems_ip",
            "units": "MBtu",
            "value": 0
          },
          {
            "name": "district_heating_refrigeration_ip",
            "units": "MBtu",
            "value": 0
          },
          {
            "name": "district_heating_generators_ip",
            "units": "MBtu",
            "value": 0
          },
          {
            "name": "district_heating_ip",
            "units": "MBtu",
            "value": 0
          },
          {
            "name": "water_heating_ip",
            "units": "MBtu",
            "value": 0
          },
          {
            "name": "water_cooling_ip",
            "units": "MBtu",
            "value": 0
          },
          {
            "name": "water_interior_lighting_ip",
            "units": "MBtu",
            "value": 0
          },
          {
            "name": "water_exterior_lighting_ip",
            "units": "MBtu",
            "value": 0
          },
          {
            "name": "water_interior_equipment_ip",
            "units": "MBtu",
            "value": 0
          },
          {
            "name": "water_exterior_equipment_ip",
            "units": "MBtu",
            "value": 0
          },
          {
            "name": "water_fans_ip",
            "units": "MBtu",
            "value": 0
          },
          {
            "name": "water_pumps_ip",
            "units": "MBtu",
            "value": 0
          },
          {
            "name": "water_heat_rejection_ip",
            "units": "MBtu",
            "value": 0
          },
          {
            "name": "water_humidification_ip",
            "units": "MBtu",
            "value": 0
          },
          {
            "name": "water_heat_recovery_ip",
            "units": "MBtu",
            "value": 0
          },
          {
            "name": "water_water_systems_ip",
            "units": "MBtu",
            "value": 0
          },
          {
            "name": "water_refrigeration_ip",
            "units": "MBtu",
            "value": 0
          },
          {
            "name": "water_generators_ip",
            "units": "MBtu",
            "value": 0
          },
          {
            "name": "water_ip",
            "units": "MBtu",
            "value": 0
          },
          {
            "name": "iead_r_15_ci_roof",
            "units": "ft^2",
            "value": 52261.49757855071
          },
          {
            "name": "steel_framed_r_13_ext_wall",
            "units": "ft^2",
            "value": 24382.70265429419
          },
          {
            "name": "zedg_k_12_daylight_glazing_north",
            "units": "ft^2",
            "value": 3058.240505369896
          },
          {
            "name": "zedg_k_12_daylight_glazing_south",
            "units": "ft^2",
            "value": 2248.186496372995
          },
          {
            "name": "zedg_k_12_view_glazing_east_west",
            "units": "ft^2",
            "value": 1087.2625911918517
          },
          {
            "name": "zedg_k_12_view_glazing_north",
            "units": "ft^2",
            "value": 1314.3897121127598
          },
          {
            "name": "zedg_k_12_view_glazing_south",
            "units": "ft^2",
            "value": 1322.4626449252955
          },
          {
            "name": "gross_window_wall_ratio",
            "units": "%",
            "value": 27.03
          },
          {
            "name": "gross_window_wall_ratio_conditioned",
            "units": "%",
            "value": 27.03
          },
          {
            "name": "skylight_roof_ratio",
            "units": "%",
            "value": 0
          },
          {
            "name": "space_type_art_class",
            "units": "ft^2",
            "value": 1743.753487506975
          },
          {
            "name": "space_type_bathrooms",
            "units": "ft^2",
            "value": 3444.451333347111
          },
          {
            "name": "space_type_cafeteria",
            "units": "ft^2",
            "value": 3390.6317812635625
          },
          {
            "name": "space_type_classroom",
            "units": "ft^2",
            "value": 35460.970921941844
          },
          {
            "name": "space_type_corridor",
            "units": "ft^2",
            "value": 17954.97757662182
          },
          {
            "name": "space_type_gym",
            "units": "ft^2",
            "value": 3842.716018765371
          },
          {
            "name": "space_type_kitchen",
            "units": "ft^2",
            "value": 1808.3369500072333
          },
          {
            "name": "space_type_lobby",
            "units": "ft^2",
            "value": 3100.0062000124
          },
          {
            "name": "space_type_mech",
            "units": "ft^2",
            "value": 2712.50542501085
          },
          {
            "name": "space_type_media_center",
            "units": "ft^2",
            "value": 4294.800256267179
          },
          {
            "name": "space_type_offices",
            "units": "ft^2",
            "value": 4746.884493768987
          },
          {
            "name": "exterior_lighting_total_power",
            "units": "W",
            "value": 2220
          },
          {
            "name": "exterior_lighting_total_consumption",
            "units": "kWh",
            "value": -474472.2222222222
          },
          {
            "name": "water_use_equipment_1",
            "units": "gal/min",
            "value": 1.6666614783487574
          },
          {
            "name": "water_use_equipment_2",
            "units": "gal/min",
            "value": 0.4711068266937068
          },
          {
            "name": "water_use_equipment_3",
            "units": "gal/min",
            "value": 0.4711068266937068
          },
          {
            "name": "inflation_approach",
            "value": "Constant Dollar"
          },
          {
            "name": "analysis_length",
            "units": "yrs",
            "value": 25
          },
          {
            "name": "annual_peak_electric_demand",
            "units": "kW",
            "value": 220.66437
          },
          {
            "name": "first_year_capital_cost",
            "units": "$",
            "value": 0
          },
          {
            "name": "annual_utility_cost",
            "units": "$",
            "value": 17796.980000000003
          },
          {
            "name": "total_lifecycle_cost",
            "units": "$",
            "value": 311784.97
          }
        ],
        "step_warnings": []
      }
    },
    {
      "arguments": {},
      "description": "Option 1 Description: Report provides annual and monthly views into heat gains and losses for envelope and internal loads.",
      "measure_dir_name": "envelope_and_internal_load_breakdown",
      "name": "Envelope and Internal Load Breakdown",
      "result": {
        "completed_at": "20171023T150230Z",
        "measure_class_name": "EnvelopeAndInternalLoadBreakdown",
        "measure_display_name": "Envelope and Internal Load Breakdown",
        "measure_name": "envelope_and_internal_load_breakdown",
        "measure_taxonomy": "Reporting.QAQC",
        "measure_type": "ReportingMeasure",
        "measure_uid": "8f0e1fbb-8bc6-46e5-b6e4-db59177e2c02",
        "measure_version_id": "a1c046b6-aae7-4440-ae24-53dc63d0b32e",
        "measure_version_modified": "20170323T060453Z",
        "measure_xml_checksum": "69BA4D91",
        "started_at": "20171023T150210Z",
        "stderr": "",
        "stdout": "[OpenStudio] <0> getSharedResourcesPath is deprecated.\n",
        "step_errors": [],
        "step_files": [
          "/Users/dgoldwas/Documents/GitHub/Personal/PAT_projects/PAT_RaceToZero_PrimarySchool/temp_data/analysis_fc1618ca-9b4f-4fdd-8f23-ad7e32c37bde/data_point_b1649e23-aae4-4fa7-9926-8ab4b03d28f6/run/025_envelope_and_internal_load_breakdown/report.html"
        ],
        "step_final_condition": "Generated report with 4 sections to ./report.html.",
        "step_info": [],
        "step_initial_condition": "Gathering data from EnergyPlus SQL file and OSM model.",
        "step_result": "Success",
        "step_values": [
          {
            "name": "electric_equipment_total_heating_energy_annual",
            "units": "kBtu",
            "value": 583474.1186702617
          },
          {
            "name": "gas_equipment_total_heating_energy_annual",
            "units": "kBtu",
            "value": 0
          },
          {
            "name": "zone_lights_total_heating_energy_annual",
            "units": "kBtu",
            "value": 339496.9557385158
          },
          {
            "name": "zone_people_sensible_heating_energy_annual",
            "units": "kBtu",
            "value": 251166.23876655847
          },
          {
            "name": "zone_mechanical_ventilation_cooling_load_increase_energy_annual",
            "units": "kBtu",
            "value": 8508.291727246049
          },
          {
            "name": "zone_infiltration_sensible_heat_gain_energy_annual",
            "units": "kBtu",
            "value": 5667.295833748214
          },
          {
            "name": "surface_window_heat_gain_energy_annual",
            "units": "kBtu",
            "value": 670299.6327122622
          },
          {
            "name": "monthly_ext_wall_heat_gain",
            "units": "kBtu",
            "value": 97709.9
          },
          {
            "name": "monthly_ext_roof_heat_gain",
            "units": "kBtu",
            "value": 317467.8
          },
          {
            "name": "monthly_ground_heat_gain",
            "units": "kBtu",
            "value": 28010.9
          },
          {
            "name": "monthly_surface_heat_gain",
            "units": "kBtu",
            "value": 443188.6
          },
          {
            "name": "zone_infiltration_sensible_heat_loss_energy_annual",
            "units": "kBtu",
            "value": 201035.5971826916
          },
          {
            "name": "zone_mechanical_ventilation_heating_load_increase_energy_annual",
            "units": "kBtu",
            "value": 0
          },
          {
            "name": "surface_window_heat_loss_energy_annual",
            "units": "kBtu",
            "value": 432840.80013299815
          },
          {
            "name": "monthly_ext_wall_heat_loss",
            "units": "kBtu",
            "value": 242507.3
          },
          {
            "name": "monthly_ext_roof_heat_loss",
            "units": "kBtu",
            "value": 578738.3
          },
          {
            "name": "monthly_ground_heat_loss",
            "units": "kBtu",
            "value": 570150.2
          },
          {
            "name": "monthly_surface_heat_loss",
            "units": "kBtu",
            "value": 1391395.8
          }
        ],
        "step_warnings": []
      }
    }
  ],
  "updated_at": "20171023T150239Z",
  "weather_file": "USA_AK_Fairbanks.Intl.AP.702610_TMY3.epw"
}