{
   "completed_at" : "20190410T051220Z",
   "completed_status" : "Success",
   "created_at" : "20190410T051123Z",
   "current_step" : 0,
   "eplusout_err" : "Program Version,EnergyPlus, Version 9.1.0-08d2e308bb, YMD=2019.04.09 23:11,\n   ************* Beginning Zone Sizing Calculations\n   ** Warning ** ProcessScheduleInput: Schedule:Day:Interval=\"ECONOMIZER MAX OA FRACTION 70 PCT DEFAULT\", Blank Schedule Type Limits Name input -- will not be validated.\n   ** Warning ** ProcessScheduleInput: Schedule:Day:Interval=\"ECONOMIZER MAX OA FRACTION 70 PCT DEFAULT 1\", Blank Schedule Type Limits Name input -- will not be validated.\n   ** Warning ** ProcessScheduleInput: Schedule:Day:Interval=\"OFFICEMEDIUM HVACOPERATIONSCHD DEFAULT\", Blank Schedule Type Limits Name input -- will not be validated.\n   ** Warning ** ProcessScheduleInput: Schedule:Day:Interval=\"OFFICEMEDIUM HVACOPERATIONSCHD SMRDSN|WKDY DAY\", Blank Schedule Type Limits Name input -- will not be validated.\n   ** Warning ** ProcessScheduleInput: Schedule:Day:Interval=\"OFFICEMEDIUM HVACOPERATIONSCHD SUMMER DESIGN DAY\", Blank Schedule Type Limits Name input -- will not be validated.\n   ** Warning ** ProcessScheduleInput: Schedule:Day:Interval=\"OFFICEMEDIUM HVACOPERATIONSCHD WINTER DESIGN DAY\", Blank Schedule Type Limits Name input -- will not be validated.\n   ** Warning ** ProcessScheduleInput: Schedule:Day:Interval=\"OFFICEMEDIUM HVACOPERATIONSCHD WNTRDSN|SAT DAY\", Blank Schedule Type Limits Name input -- will not be validated.\n   ** Warning ** ProcessScheduleInput: Schedule:Day:Interval=\"SCHEDULE DAY 1\", Blank Schedule Type Limits Name input -- will not be validated.\n   ** Warning ** ProcessScheduleInput: Schedule:Day:Interval=\"SCHEDULE DAY 2\", Blank Schedule Type Limits Name input -- will not be validated.\n   ** Warning ** ProcessScheduleInput: Schedule:Year=\"ECONOMIZER MAX OA FRACTION 70 PCT\", Blank Schedule Type Limits Name input -- will not be validated.\n   ** Warning ** ProcessScheduleInput: Schedule:Year=\"OFFICEMEDIUM HVACOPERATIONSCHD\", Blank Schedule Type Limits Name input -- will not be validated.\n   ** Warning ** ProcessScheduleInput: Schedule:Constant=\"ALWAYS OFF DISCRETE\", Blank Schedule Type Limits Name input -- will not be validated.\n   ** Warning ** ProcessScheduleInput: Schedule:Constant=\"ALWAYS ON CONTINUOUS\", Blank Schedule Type Limits Name input -- will not be validated.\n   ** Warning ** CheckUsedConstructions: There are 9 nominally unused constructions in input.\n   **   ~~~   ** For explicit details on each unused construction, use Output:Diagnostics,DisplayExtraWarnings;\n   ** Warning ** GetDaylightingControls: Fraction of Zone controlled by the Daylighting reference points is < 1.0.\n   **   ~~~   ** ..discovered in \"Daylighting:Controls\" for Zone=\"PERIMETER_BOT_ZN_1 ZN\", only 0.52 of the zone is controlled.\n   ** Warning ** GetDaylightingControls: Fraction of Zone controlled by the Daylighting reference points is < 1.0.\n   **   ~~~   ** ..discovered in \"Daylighting:Controls\" for Zone=\"PERIMETER_BOT_ZN_2 ZN\", only 0.52 of the zone is controlled.\n   ** Warning ** GetDaylightingControls: Fraction of Zone controlled by the Daylighting reference points is < 1.0.\n   **   ~~~   ** ..discovered in \"Daylighting:Controls\" for Zone=\"PERIMETER_BOT_ZN_3 ZN\", only 0.52 of the zone is controlled.\n   ** Warning ** GetDaylightingControls: Fraction of Zone controlled by the Daylighting reference points is < 1.0.\n   **   ~~~   ** ..discovered in \"Daylighting:Controls\" for Zone=\"PERIMETER_BOT_ZN_4 ZN\", only 0.52 of the zone is controlled.\n   ** Warning ** GetDaylightingControls: Fraction of Zone controlled by the Daylighting reference points is < 1.0.\n   **   ~~~   ** ..discovered in \"Daylighting:Controls\" for Zone=\"PERIMETER_MID_ZN_1 ZN\", only 0.52 of the zone is controlled.\n   ** Warning ** GetDaylightingControls: Fraction of Zone controlled by the Daylighting reference points is < 1.0.\n   **   ~~~   ** ..discovered in \"Daylighting:Controls\" for Zone=\"PERIMETER_MID_ZN_2 ZN\", only 0.52 of the zone is controlled.\n   ** Warning ** GetDaylightingControls: Fraction of Zone controlled by the Daylighting reference points is < 1.0.\n   **   ~~~   ** ..discovered in \"Daylighting:Controls\" for Zone=\"PERIMETER_MID_ZN_3 ZN\", only 0.52 of the zone is controlled.\n   ** Warning ** GetDaylightingControls: Fraction of Zone controlled by the Daylighting reference points is < 1.0.\n   **   ~~~   ** ..discovered in \"Daylighting:Controls\" for Zone=\"PERIMETER_MID_ZN_4 ZN\", only 0.52 of the zone is controlled.\n   ** Warning ** GetDaylightingControls: Fraction of Zone controlled by the Daylighting reference points is < 1.0.\n   **   ~~~   ** ..discovered in \"Daylighting:Controls\" for Zone=\"PERIMETER_TOP_ZN_1 ZN\", only 0.52 of the zone is controlled.\n   ** Warning ** GetDaylightingControls: Fraction of Zone controlled by the Daylighting reference points is < 1.0.\n   **   ~~~   ** ..discovered in \"Daylighting:Controls\" for Zone=\"PERIMETER_TOP_ZN_2 ZN\", only 0.52 of the zone is controlled.\n   ** Warning ** GetDaylightingControls: Fraction of Zone controlled by the Daylighting reference points is < 1.0.\n   **   ~~~   ** ..discovered in \"Daylighting:Controls\" for Zone=\"PERIMETER_TOP_ZN_3 ZN\", only 0.52 of the zone is controlled.\n   ** Warning ** GetDaylightingControls: Fraction of Zone controlled by the Daylighting reference points is < 1.0.\n   **   ~~~   ** ..discovered in \"Daylighting:Controls\" for Zone=\"PERIMETER_TOP_ZN_4 ZN\", only 0.52 of the zone is controlled.\n   ************* Beginning System Sizing Calculations\n   ** Warning ** Since Zone Minimum Air Flow Input Method = CONSTANT, input for Fixed Minimum Air Flow Rate will be ignored.\n   **   ~~~   ** Occurs in AirTerminal:SingleDuct:VAV:Reheat = CORE_BOTTOM ZN VAV TERMINAL\n   ** Warning ** Since Zone Minimum Air Flow Input Method = CONSTANT, input for Fixed Minimum Air Flow Rate will be ignored.\n   **   ~~~   ** Occurs in AirTerminal:SingleDuct:VAV:Reheat = CORE_MID ZN VAV TERMINAL\n   ** Warning ** Since Zone Minimum Air Flow Input Method = CONSTANT, input for Fixed Minimum Air Flow Rate will be ignored.\n   **   ~~~   ** Occurs in AirTerminal:SingleDuct:VAV:Reheat = CORE_TOP ZN VAV TERMINAL\n   ** Warning ** Since Zone Minimum Air Flow Input Method = CONSTANT, input for Fixed Minimum Air Flow Rate will be ignored.\n   **   ~~~   ** Occurs in AirTerminal:SingleDuct:VAV:Reheat = PERIMETER_BOT_ZN_1 ZN VAV TERMINAL\n   ** Warning ** Since Zone Minimum Air Flow Input Method = CONSTANT, input for Fixed Minimum Air Flow Rate will be ignored.\n   **   ~~~   ** Occurs in AirTerminal:SingleDuct:VAV:Reheat = PERIMETER_BOT_ZN_2 ZN VAV TERMINAL\n   ** Warning ** Since Zone Minimum Air Flow Input Method = CONSTANT, input for Fixed Minimum Air Flow Rate will be ignored.\n   **   ~~~   ** Occurs in AirTerminal:SingleDuct:VAV:Reheat = PERIMETER_BOT_ZN_3 ZN VAV TERMINAL\n   ** Warning ** Since Zone Minimum Air Flow Input Method = CONSTANT, input for Fixed Minimum Air Flow Rate will be ignored.\n   **   ~~~   ** Occurs in AirTerminal:SingleDuct:VAV:Reheat = PERIMETER_BOT_ZN_4 ZN VAV TERMINAL\n   ** Warning ** Since Zone Minimum Air Flow Input Method = CONSTANT, input for Fixed Minimum Air Flow Rate will be ignored.\n   **   ~~~   ** Occurs in AirTerminal:SingleDuct:VAV:Reheat = PERIMETER_MID_ZN_1 ZN VAV TERMINAL\n   ** Warning ** Since Zone Minimum Air Flow Input Method = CONSTANT, input for Fixed Minimum Air Flow Rate will be ignored.\n   **   ~~~   ** Occurs in AirTerminal:SingleDuct:VAV:Reheat = PERIMETER_MID_ZN_2 ZN VAV TERMINAL\n   ** Warning ** Since Zone Minimum Air Flow Input Method = CONSTANT, input for Fixed Minimum Air Flow Rate will be ignored.\n   **   ~~~   ** Occurs in AirTerminal:SingleDuct:VAV:Reheat = PERIMETER_MID_ZN_3 ZN VAV TERMINAL\n   ** Warning ** Since Zone Minimum Air Flow Input Method = CONSTANT, input for Fixed Minimum Air Flow Rate will be ignored.\n   **   ~~~   ** Occurs in AirTerminal:SingleDuct:VAV:Reheat = PERIMETER_MID_ZN_4 ZN VAV TERMINAL\n   ** Warning ** Since Zone Minimum Air Flow Input Method = CONSTANT, input for Fixed Minimum Air Flow Rate will be ignored.\n   **   ~~~   ** Occurs in AirTerminal:SingleDuct:VAV:Reheat = PERIMETER_TOP_ZN_1 ZN VAV TERMINAL\n   ** Warning ** Since Zone Minimum Air Flow Input Method = CONSTANT, input for Fixed Minimum Air Flow Rate will be ignored.\n   **   ~~~   ** Occurs in AirTerminal:SingleDuct:VAV:Reheat = PERIMETER_TOP_ZN_2 ZN VAV TERMINAL\n   ** Warning ** Since Zone Minimum Air Flow Input Method = CONSTANT, input for Fixed Minimum Air Flow Rate will be ignored.\n   **   ~~~   ** Occurs in AirTerminal:SingleDuct:VAV:Reheat = PERIMETER_TOP_ZN_3 ZN VAV TERMINAL\n   ** Warning ** Since Zone Minimum Air Flow Input Method = CONSTANT, input for Fixed Minimum Air Flow Rate will be ignored.\n   **   ~~~   ** Occurs in AirTerminal:SingleDuct:VAV:Reheat = PERIMETER_TOP_ZN_4 ZN VAV TERMINAL\n   ************* Beginning Plant Sizing Calculations\n   ** Warning ** Controller:MechanicalVentilation=\"15 ZONE VAV VENT CONTROLLER\", Zone OA/person rate\n   **   ~~~   ** For Zone=\"CORE_BOTTOM ZN\".\n   **   ~~~   ** Zone outside air per person rate not set in Design Specification Outdoor Air Object=\"OFFICE WHOLEBUILDING - MD OFFICE VENTILATION\".\n   ** Warning ** Controller:MechanicalVentilation=\"15 ZONE VAV VENT CONTROLLER\", Zone OA/person rate\n   **   ~~~   ** For Zone=\"CORE_MID ZN\".\n   **   ~~~   ** Zone outside air per person rate not set in Design Specification Outdoor Air Object=\"OFFICE WHOLEBUILDING - MD OFFICE VENTILATION\".\n   ** Warning ** Controller:MechanicalVentilation=\"15 ZONE VAV VENT CONTROLLER\", Zone OA/person rate\n   **   ~~~   ** For Zone=\"CORE_TOP ZN\".\n   **   ~~~   ** Zone outside air per person rate not set in Design Specification Outdoor Air Object=\"OFFICE WHOLEBUILDING - MD OFFICE VENTILATION\".\n   ** Warning ** Controller:MechanicalVentilation=\"15 ZONE VAV VENT CONTROLLER\", Zone OA/person rate\n   **   ~~~   ** For Zone=\"PERIMETER_BOT_ZN_1 ZN\".\n   **   ~~~   ** Zone outside air per person rate not set in Design Specification Outdoor Air Object=\"OFFICE WHOLEBUILDING - MD OFFICE VENTILATION\".\n   ** Warning ** Controller:MechanicalVentilation=\"15 ZONE VAV VENT CONTROLLER\", Zone OA/person rate\n   **   ~~~   ** For Zone=\"PERIMETER_BOT_ZN_2 ZN\".\n   **   ~~~   ** Zone outside air per person rate not set in Design Specification Outdoor Air Object=\"OFFICE WHOLEBUILDING - MD OFFICE VENTILATION\".\n   ** Warning ** Controller:MechanicalVentilation=\"15 ZONE VAV VENT CONTROLLER\", Zone OA/person rate\n   **   ~~~   ** For Zone=\"PERIMETER_BOT_ZN_3 ZN\".\n   **   ~~~   ** Zone outside air per person rate not set in Design Specification Outdoor Air Object=\"OFFICE WHOLEBUILDING - MD OFFICE VENTILATION\".\n   ** Warning ** Controller:MechanicalVentilation=\"15 ZONE VAV VENT CONTROLLER\", Zone OA/person rate\n   **   ~~~   ** For Zone=\"PERIMETER_BOT_ZN_4 ZN\".\n   **   ~~~   ** Zone outside air per person rate not set in Design Specification Outdoor Air Object=\"OFFICE WHOLEBUILDING - MD OFFICE VENTILATION\".\n   ** Warning ** Controller:MechanicalVentilation=\"15 ZONE VAV VENT CONTROLLER\", Zone OA/person rate\n   **   ~~~   ** For Zone=\"PERIMETER_MID_ZN_1 ZN\".\n   **   ~~~   ** Zone outside air per person rate not set in Design Specification Outdoor Air Object=\"OFFICE WHOLEBUILDING - MD OFFICE VENTILATION\".\n   ** Warning ** Controller:MechanicalVentilation=\"15 ZONE VAV VENT CONTROLLER\", Zone OA/person rate\n   **   ~~~   ** For Zone=\"PERIMETER_MID_ZN_2 ZN\".\n   **   ~~~   ** Zone outside air per person rate not set in Design Specification Outdoor Air Object=\"OFFICE WHOLEBUILDING - MD OFFICE VENTILATION\".\n   ** Warning ** Controller:MechanicalVentilation=\"15 ZONE VAV VENT CONTROLLER\", Zone OA/person rate\n   **   ~~~   ** For Zone=\"PERIMETER_MID_ZN_3 ZN\".\n   **   ~~~   ** Zone outside air per person rate not set in Design Specification Outdoor Air Object=\"OFFICE WHOLEBUILDING - MD OFFICE VENTILATION\".\n   ** Warning ** Controller:MechanicalVentilation=\"15 ZONE VAV VENT CONTROLLER\", Zone OA/person rate\n   **   ~~~   ** For Zone=\"PERIMETER_MID_ZN_4 ZN\".\n   **   ~~~   ** Zone outside air per person rate not set in Design Specification Outdoor Air Object=\"OFFICE WHOLEBUILDING - MD OFFICE VENTILATION\".\n   ** Warning ** Controller:MechanicalVentilation=\"15 ZONE VAV VENT CONTROLLER\", Zone OA/person rate\n   **   ~~~   ** For Zone=\"PERIMETER_TOP_ZN_1 ZN\".\n   **   ~~~   ** Zone outside air per person rate not set in Design Specification Outdoor Air Object=\"OFFICE WHOLEBUILDING - MD OFFICE VENTILATION\".\n   ** Warning ** Controller:MechanicalVentilation=\"15 ZONE VAV VENT CONTROLLER\", Zone OA/person rate\n   **   ~~~   ** For Zone=\"PERIMETER_TOP_ZN_2 ZN\".\n   **   ~~~   ** Zone outside air per person rate not set in Design Specification Outdoor Air Object=\"OFFICE WHOLEBUILDING - MD OFFICE VENTILATION\".\n   ** Warning ** Controller:MechanicalVentilation=\"15 ZONE VAV VENT CONTROLLER\", Zone OA/person rate\n   **   ~~~   ** For Zone=\"PERIMETER_TOP_ZN_3 ZN\".\n   **   ~~~   ** Zone outside air per person rate not set in Design Specification Outdoor Air Object=\"OFFICE WHOLEBUILDING - MD OFFICE VENTILATION\".\n   ** Warning ** Controller:MechanicalVentilation=\"15 ZONE VAV VENT CONTROLLER\", Zone OA/person rate\n   **   ~~~   ** For Zone=\"PERIMETER_TOP_ZN_4 ZN\".\n   **   ~~~   ** Zone outside air per person rate not set in Design Specification Outdoor Air Object=\"OFFICE WHOLEBUILDING - MD OFFICE VENTILATION\".\n   ** Warning ** In calculating the design coil UA for Coil:Cooling:Water 15 ZONE VAV CLG COIL\n   **   ~~~   ** the coil bypass factor is unrealistically large;\n   **   ~~~   ** The initial design conditions are: Tair,in = 25.8857\n   **   ~~~   **                                    Wair,in = 9.854979E-003\n   **   ~~~   **                                    Twater,in = 6.6667\n   **   ~~~   **                                    Tair,out = 11.5194\n   **   ~~~   **                                    Wair,out = 8.500000E-003\n   ** Warning ** Missing temperature setpoint for LeavingSetpointModulated mode Boiler named BOILER 617KBTU/HR 0.94 COMBUSTION EFF\n   **   ~~~   **   A temperature setpoint is needed at the outlet node of a boiler in variable flow mode\n   **   ~~~   **   use a Setpoint Manager to establish a setpoint at the boiler outlet node \n   **   ~~~   **   or use an EMS actuator to establish a setpoint at the boiler outlet node \n   **   ~~~   **   The overall loop setpoint will be assumed for Boiler. The simulation continues ... \n   ** Warning ** Output:Meter: invalid Key Name=\"DISTRICTCOOLING:FACILITY\" - not found.\n   ** Warning ** Output:Meter: invalid Key Name=\"DISTRICTHEATING:FACILITY\" - not found.\n   ** Warning ** Output:Meter:MeterFileOnly requested for \"Electricity:Facility\" (TimeStep), already on \"Output:Meter\". Will report to both eplusout.eso and eplusout.mtr\n   ************* Testing Individual Branch Integrity\n   ************* All Branches passed integrity testing\n   ************* Testing Individual Supply Air Path Integrity\n   ************* All Supply Air Paths passed integrity testing\n   ************* Testing Individual Return Air Path Integrity\n   ************* All Return Air Paths passed integrity testing\n   ************* No node connection errors were found.\n   ************* Beginning Simulation\n   ** Warning ** Processing Monthly Tabular Reports: Variable names not valid for this simulation\n   **   ~~~   ** ...use Output:Diagnostics,DisplayExtraWarnings; to show more details on individual variables.\n   ** Warning ** SimHVAC: Maximum iterations (25) exceeded for all HVAC loops, at RUN PERIOD 1, 01/02 07:06 - 07:08\n   **   ~~~   ** The solution for one or more of the Air Loop HVAC systems did not appear to converge\n   **   ~~~   ** ...use Output:Diagnostics,DisplayExtraWarnings; to show more details on each max iteration exceeded.\n   ** Warning ** SimHVAC: Maximum iterations (25) exceeded for all HVAC loops, at RUN PERIOD 1, 01/02 07:08 - 07:10\n   **   ~~~   ** The solution for one or more of the Air Loop HVAC systems did not appear to converge\n   ** Warning ** SimHVAC: Maximum iterations (25) exceeded for all HVAC loops, at RUN PERIOD 1, 01/02 07:12 - 07:14\n   **   ~~~   ** The solution for one or more of the Air Loop HVAC systems did not appear to converge\n   ** Warning ** SimHVAC: Maximum iterations (25) exceeded for all HVAC loops, at RUN PERIOD 1, 01/02 07:14 - 07:16\n   **   ~~~   ** The solution for one or more of the Air Loop HVAC systems did not appear to converge\n   ** Warning ** SimHVAC: Maximum iterations (25) exceeded for all HVAC loops, at RUN PERIOD 1, 01/02 07:16 - 07:18\n   **   ~~~   ** The solution for one or more of the Air Loop HVAC systems did not appear to converge\n   ** Warning ** SimHVAC: Maximum iterations (25) exceeded for all HVAC loops, at RUN PERIOD 1, 01/02 07:18 - 07:20\n   **   ~~~   ** The solution for one or more of the Air Loop HVAC systems did not appear to converge\n   ** Warning ** SimHVAC: Maximum iterations (25) exceeded for all HVAC loops, at RUN PERIOD 1, 01/02 08:20 - 08:30\n   **   ~~~   ** The solution for one or more of the Air Loop HVAC systems did not appear to converge\n   ** Warning ** SimHVAC: Maximum iterations (25) exceeded for all HVAC loops, at RUN PERIOD 1, 01/03 14:30 - 14:40\n   **   ~~~   ** The solution for one or more of the Air Loop HVAC systems did not appear to converge\n   ** Warning ** SimHVAC: Maximum iterations (25) exceeded for all HVAC loops, at RUN PERIOD 1, 01/03 14:30 - 14:35\n   **   ~~~   ** The solution for one or more of the Air Loop HVAC systems did not appear to converge\n   ** Warning ** SimHVAC: Maximum iterations (25) exceeded for all HVAC loops, at RUN PERIOD 1, 01/03 14:40 - 14:50\n   **   ~~~   ** The solution for one or more of the Air Loop HVAC systems did not appear to converge\n   ** Warning ** SimHVAC: Maximum iterations (25) exceeded for all HVAC loops, at RUN PERIOD 1, 01/03 14:50 - 15:00\n   **   ~~~   ** The solution for one or more of the Air Loop HVAC systems did not appear to converge\n   ** Warning ** SimHVAC: Maximum iterations (25) exceeded for all HVAC loops, at RUN PERIOD 1, 01/03 14:50 - 14:55\n   **   ~~~   ** The solution for one or more of the Air Loop HVAC systems did not appear to converge\n   ** Warning ** SimHVAC: Maximum iterations (25) exceeded for all HVAC loops, at RUN PERIOD 1, 01/03 15:40 - 15:50\n   **   ~~~   ** The solution for one or more of the Air Loop HVAC systems did not appear to converge\n   ** Warning ** SimHVAC: Maximum iterations (25) exceeded for all HVAC loops, at RUN PERIOD 1, 01/03 16:10 - 16:20\n   **   ~~~   ** The solution for one or more of the Air Loop HVAC systems did not appear to converge\n   ** Warning ** ElectricEIRChillerModel - CHILLER:ELECTRIC:EIR \"NREL ZNE READY 2017    CHILLER 0 84TONS 1.1KW/TON\" - Air Cooled Condenser Inlet Temperature below 0C.\n   **   ~~~   ** ... Outdoor Dry-bulb Condition =  -1.10 C. Occurrence info = RUN PERIOD 1, 01/11 07:02 - 07:04\n   ** Warning ** HeatExchanger:AirToAir:SensibleAndLatent \"15 ZONE VAV ERV\"\n   **   ~~~   ** Average air volume flow rate is <50% or >130% of the nominal HX supply air volume flow rate.\n   **   ~~~   ** Air volume flow rate ratio = 2.417. Environment=RUN PERIOD 1, at Simulation time=01/23 07:00 - 07:10\n   ** Warning ** The resource referenced by LifeCycleCost:UsePriceEscalation= \"U.S. AVG  COMMERCIAL-ELECTRICITY\" has no energy cost. \n   **   ~~~   ** ... It is likely that the wrong resource is used. The resource should match the meter used in Utility:Tariff.\n   ** Warning ** The resource referenced by LifeCycleCost:UsePriceEscalation= \"U.S. AVG  COMMERCIAL-DISTILLATE OIL\" has no energy cost. \n   **   ~~~   ** ... It is likely that the wrong resource is used. The resource should match the meter used in Utility:Tariff.\n   ** Warning ** The resource referenced by LifeCycleCost:UsePriceEscalation= \"U.S. AVG  COMMERCIAL-RESIDUAL OIL\" has no energy cost. \n   **   ~~~   ** ... It is likely that the wrong resource is used. The resource should match the meter used in Utility:Tariff.\n   ** Warning ** The resource referenced by LifeCycleCost:UsePriceEscalation= \"U.S. AVG  COMMERCIAL-NATURAL GAS\" has no energy cost. \n   **   ~~~   ** ... It is likely that the wrong resource is used. The resource should match the meter used in Utility:Tariff.\n   ** Warning ** The resource referenced by LifeCycleCost:UsePriceEscalation= \"U.S. AVG  COMMERCIAL-COAL\" has no energy cost. \n   **   ~~~   ** ... It is likely that the wrong resource is used. The resource should match the meter used in Utility:Tariff.\n   ************* Simulation Error Summary *************\n   ************* There are 11 unused schedules in input.\n   ************* There are 11 unused week schedules in input.\n   ************* There are 25 unused day schedules in input.\n   ************* Use Output:Diagnostics,DisplayUnusedSchedules; to see them.\n   *************\n   ************* ===== Recurring Error Summary =====\n   ************* The following recurring error messages occurred.\n   *************\n   *************  ** Warning ** SimHVAC: Exceeding Maximum iterations for all HVAC loops, during RUN PERIOD 1 continues\n   *************  **   ~~~   **   This error occurred 874 total times;\n   *************  **   ~~~   **   during Warmup 0 times;\n   *************  **   ~~~   **   during Sizing 0 times.\n   *************\n   *************  ** Warning ** ElectricEIRChillerModel - CHILLER:ELECTRIC:EIR \"NREL ZNE READY 2017    CHILLER 0 84TONS 1.1KW/TON\" - Air Cooled Condenser Inlet Temperature below 0C error continues.\n   *************  **   ~~~   **   This error occurred 107 total times;\n   *************  **   ~~~   **   during Warmup 0 times;\n   *************  **   ~~~   **   during Sizing 0 times.\n   *************  **   ~~~   **   Max=-3.333333E-002 [C]  Min=-5.816667 [C]\n   *************\n   *************  ** Warning ** HeatExchanger:AirToAir:SensibleAndLatent \"15 ZONE VAV ERV\":  Average air volume flow rate is <50% or >130% warning continues. Air flow rate ratio statistics follow.\n   *************  **   ~~~   **   This error occurred 197 total times;\n   *************  **   ~~~   **   during Warmup 0 times;\n   *************  **   ~~~   **   during Sizing 0 times.\n   *************  **   ~~~   **   Max=2.417453  Min=2.350312\n   *************\n   *************\n   ************* ===== Final Error Summary =====\n   ************* The following error categories occurred.  Consider correcting or noting.\n   ************* Nominally Unused Constructions\n   ************* ..The nominally unused constructions warning is provided to alert you to potential conditions that can cause\n   ************* ..extra time during simulation. Each construction is calculated by the algorithm indicated in the HeatBalanceAlgorithm\n   ************* ..object. You may remove the constructions indicated (when you use the DisplayExtraWarnings option).\n   *************\n   ************* EnergyPlus Warmup Error Summary. During Warmup: 0 Warning; 0 Severe Errors.\n   ************* EnergyPlus Sizing Error Summary. During Sizing: 41 Warning; 0 Severe Errors.\n   ************* EnergyPlus Completed Successfully-- 1261 Warning; 0 Severe Errors; Elapsed Time=00hr 00min 52.91sec\n",
   "hash" : "9F0463E8",
   "seed_file" : "/Users/dgoldwas/Documents/GitHub/NREL/OpenStudio-measures/nrel_published/nze_hvac/tests/output/test_humid_office_vav_reheat_auto_partition/test_humid_office_vav_reheat_auto_partition.osm",
   "started_at" : "20190410T051125Z",
   "steps" : [],
   "updated_at" : "20190410T051220Z",
   "weather_file" : "/Users/dgoldwas/Documents/GitHub/NREL/OpenStudio-measures/nrel_published/nze_hvac/tests/output/test_humid_office_vav_reheat_auto_partition/USA_TX_Houston-Bush.Intercontinental.AP.722430_TMY3.epw"
}
