Program Version,EnergyPlus, Version 9.0.1-bb7ca4f0da, YMD=2018.11.01 11:33
! <Version>, Version ID
 Version, 9.0
! <Timesteps per Hour>, #TimeSteps, Minutes per TimeStep {minutes}
 Timesteps per Hour,  6, 10
! <System Convergence Limits>, Minimum System TimeStep {minutes}, Max HVAC Iterations, Minimum Plant Iterations, Maximum Plant Iterations
 System Convergence Limits, 2, 25, 2, 8
! <Simulation Control>, Do Zone Sizing, Do System Sizing, Do Plant Sizing, Do Design Days, Do Weather Simulation, Do HVAC Sizing Simulation
 Simulation Control, Yes, Yes, Yes, Yes, No, No
! <Output Reporting Tolerances>, Tolerance for Time Heating Setpoint Not Met, Tolerance for Zone Cooling Setpoint Not Met Time
 Output Reporting Tolerances, 0.556, 0.556, 
! <Site:GroundTemperature:BuildingSurface>,Jan{C},Feb{C},Mar{C},Apr{C},May{C},Jun{C},Jul{C},Aug{C},Sep{C},Oct{C},Nov{C},Dec{C}
 Site:GroundTemperature:BuildingSurface,  20.73,  20.68,  20.76,  20.84,  20.94,  23.13,  23.50,  23.58,  23.60,  21.36,  21.01,  20.81
! <Site:GroundTemperature:FCfactorMethod>,Jan{C},Feb{C},Mar{C},Apr{C},May{C},Jun{C},Jul{C},Aug{C},Sep{C},Oct{C},Nov{C},Dec{C}
 Site:GroundTemperature:FCfactorMethod,  15.78,  13.03,  12.28,  12.93,  16.64,  20.79,  24.70,  27.53,  28.35,  27.02,  23.82,  19.79
! <Site:GroundTemperature:Shallow>,Jan{C},Feb{C},Mar{C},Apr{C},May{C},Jun{C},Jul{C},Aug{C},Sep{C},Oct{C},Nov{C},Dec{C}
 Site:GroundTemperature:Shallow,  13.00,  13.00,  13.00,  13.00,  13.00,  13.00,  13.00,  13.00,  13.00,  13.00,  13.00,  13.00
! <Site:GroundTemperature:Deep>,Jan{C},Feb{C},Mar{C},Apr{C},May{C},Jun{C},Jul{C},Aug{C},Sep{C},Oct{C},Nov{C},Dec{C}
 Site:GroundTemperature:Deep,  16.00,  16.00,  16.00,  16.00,  16.00,  16.00,  16.00,  16.00,  16.00,  16.00,  16.00,  16.00
! <Site:GroundReflectance>,Jan{dimensionless},Feb{dimensionless},Mar{dimensionless},Apr{dimensionless},May{dimensionless},Jun{dimensionless},Jul{dimensionless},Aug{dimensionless},Sep{dimensionless},Oct{dimensionless},Nov{dimensionless},Dec{dimensionless}
 Site:GroundReflectance,  0.20,  0.20,  0.20,  0.20,  0.20,  0.20,  0.20,  0.20,  0.20,  0.20,  0.20,  0.20
! <Site:GroundReflectance:SnowModifier>, Normal, Daylighting {dimensionless}
 Site:GroundReflectance:SnowModifier,   1.000,   1.000
! <Site:GroundReflectance:Snow>,Jan{dimensionless},Feb{dimensionless},Mar{dimensionless},Apr{dimensionless},May{dimensionless},Jun{dimensionless},Jul{dimensionless},Aug{dimensionless},Sep{dimensionless},Oct{dimensionless},Nov{dimensionless},Dec{dimensionless}
 Site:GroundReflectance:Snow,  0.20,  0.20,  0.20,  0.20,  0.20,  0.20,  0.20,  0.20,  0.20,  0.20,  0.20,  0.20
! <Site:GroundReflectance:Snow:Daylighting>,Jan{dimensionless},Feb{dimensionless},Mar{dimensionless},Apr{dimensionless},May{dimensionless},Jun{dimensionless},Jul{dimensionless},Aug{dimensionless},Sep{dimensionless},Oct{dimensionless},Nov{dimensionless},Dec{dimensionless}
 Site:GroundReflectance:Snow:Daylighting,  0.20,  0.20,  0.20,  0.20,  0.20,  0.20,  0.20,  0.20,  0.20,  0.20,  0.20,  0.20
! <Environment:Weather Station>,Wind Sensor Height Above Ground {m},Wind Speed Profile Exponent {},Wind Speed Profile Boundary Layer Thickness {m},Air Temperature Sensor Height Above Ground {m},Wind Speed Modifier Coefficient-Internal,Temperature Modifier Coefficient-Internal
Environment:Weather Station,10.000,0.140,270.000,1.500,1.586,9.750E-003
! <Site:Location>, Location Name, Latitude {N+/S- Deg}, Longitude {E+/W- Deg},  Time Zone Number {GMT+/-}, Elevation {m},  Standard Pressure at Elevation {Pa}, Standard RhoAir at Elevation
Site:Location,Houston Bush Intercontinental TX USA TMY3 WMO#=722430,30.00,-95.37,-6.00,29.00,100977,1.2002
! <Site Water Mains Temperature Information>,Calculation Method{},Water Mains Temperature Schedule Name{},Annual Average Outdoor Air Temperature{C},Maximum Difference In Monthly Average Outdoor Air Temperatures{deltaC},Fixed Default Water Mains Temperature{C}
Site Water Mains Temperature Information,Correlation,NA,20.32,17.80,NA
! <Building Information>, Building Name,North Axis {deg},Terrain,  Loads Convergence Tolerance Value,Temperature Convergence Tolerance Value,  Solar Distribution,Maximum Number of Warmup Days,Minimum Number of Warmup Days
 Building Information,-MediumOffice-ASHRAE 169-2006-2A created: 2018-10-22 12:13:18 -0600,0.000,City,4.00000E-002,0.20000,FullInteriorAndExterior,25,6
! <Inside Convection Algorithm>, Algorithm {Simple | TARP | CeilingDiffuser | AdaptiveConvectionAlgorithm}
Inside Convection Algorithm,TARP
! <Outside Convection Algorithm>, Algorithm {SimpleCombined | TARP | MoWitt | DOE-2 | AdaptiveConvectionAlgorithm}
Outside Convection Algorithm,TARP
! <Sky Radiance Distribution>, Value {Anisotropic}
Sky Radiance Distribution,Anisotropic
! <Zone Air Solution Algorithm>, Value {ThirdOrderBackwardDifference | AnalyticalSolution | EulerMethod}
 Zone Air Solution Algorithm, ThirdOrderBackwardDifference
! <Zone Air Carbon Dioxide Balance Simulation>, Simulation {Yes/No}, Carbon Dioxide Concentration
 Zone Air Carbon Dioxide Balance Simulation, No,N/A
! <Zone Air Generic Contaminant Balance Simulation>, Simulation {Yes/No}, Generic Contaminant Concentration
 Zone Air Generic Contaminant Balance Simulation, No,N/A
! <Zone Air Mass Flow Balance Simulation>, Enforce Mass Balance, Adjust Zone Mixing, Adjust Zone Infiltration {AddInfiltration | AdjustInfiltration | None}, Infiltration Zones {MixingSourceZonesOnly | AllZones}
 Zone Air Mass Flow Balance Simulation, No,N/A,N/A,N/A
! <HVACSystemRootFindingAlgorithm>, Value {RegulaFalsi | Bisection | BisectionThenRegulaFalsi | RegulaFalsiThenBisection}
 HVACSystemRootFindingAlgorithm, RegulaFalsi
! <Environment:Site Atmospheric Variation>,Wind Speed Profile Exponent {},Wind Speed Profile Boundary Layer Thickness {m},Air Temperature Gradient Coefficient {K/m}
Environment:Site Atmospheric Variation,0.330,460.000,6.500000E-003
! <Surface Geometry>,Starting Corner,Vertex Input Direction,Coordinate System,Daylight Reference Point Coordinate System,Rectangular (Simple) Surface Coordinate System
 Surface Geometry,UpperLeftCorner,Counterclockwise,RelativeCoordinateSystem,RelativeCoordinateSystem,RelativeToZoneOrigin
! <Surface Heat Transfer Algorithm>, Value {CTF - ConductionTransferFunction | EMPD - MoisturePenetrationDepthConductionTransferFunction | CondFD - ConductionFiniteDifference | HAMT - CombinedHeatAndMoistureFiniteElement} - Description,Inside Surface Max Temperature Limit{C}, Surface Convection Coefficient Lower Limit {W/m2-K}, Surface Convection Coefficient Upper Limit {W/m2-K}
Surface Heat Transfer Algorithm, CTF - ConductionTransferFunction,200,0.10,1000.0
! <Shading Summary>, Number of Fixed Detached Shades, Number of Building Detached Shades, Number of Attached Shades
 Shading Summary,0,0,0
! <Zone Summary>, Number of Zones, Number of Zone Surfaces, Number of SubSurfaces
 Zone Summary,18,155,12
! <Zone Information>,Zone Name,North Axis {deg},Origin X-Coordinate {m},Origin Y-Coordinate {m},Origin Z-Coordinate {m},Centroid X-Coordinate {m},Centroid Y-Coordinate {m},Centroid Z-Coordinate {m},Type,Zone Multiplier,Zone List Multiplier,Minimum X {m},Maximum X {m},Minimum Y {m},Maximum Y {m},Minimum Z {m},Maximum Z {m},Ceiling Height {m},Volume {m3},Zone Inside Convection Algorithm {Simple-Detailed-CeilingDiffuser-TrombeWall},Zone Outside Convection Algorithm {Simple-Detailed-Tarp-MoWitt-DOE-2-BLAST}, Floor Area {m2},Exterior Gross Wall Area {m2},Exterior Net Wall Area {m2},Exterior Window Area {m2}, Number of Surfaces, Number of SubSurfaces, Number of Shading SubSurfaces,  Part of Total Building Area
 Zone Information, CORE_BOTTOM ZN,0.0,0.00,0.00,0.00,24.96,16.64,1.37,1,1,1,4.57,45.34,4.57,28.70,0.00,2.74,2.74,2698.04,TARP,TARP,983.54,0.00,0.00,0.00,6,0,0,Yes
 Zone Information, CORE_MID ZN,0.0,0.00,0.00,0.00,24.96,16.64,5.33,1,1,1,4.57,45.34,4.57,28.70,3.96,6.71,2.74,2698.04,TARP,TARP,983.54,0.00,0.00,0.00,6,0,0,Yes
 Zone Information, CORE_TOP ZN,0.0,0.00,0.00,0.00,24.96,16.64,9.30,1,1,1,4.57,45.34,4.57,28.70,7.92,10.67,2.74,2698.04,TARP,TARP,983.54,0.00,0.00,0.00,6,0,0,Yes
 Zone Information, FIRSTFLOOR_PLENUM ZN,0.0,0.00,0.00,0.00,24.96,16.64,3.35,1,1,1,0.00,49.91,0.00,33.27,2.74,3.96,1.22,2024.76,TARP,TARP,1660.73,202.84,202.84,0.00,14,0,0,No
 Zone Information, MIDFLOOR_PLENUM ZN,0.0,0.00,0.00,0.00,24.96,16.64,7.32,1,1,1,0.00,49.91,0.00,33.27,6.71,7.92,1.22,2024.76,TARP,TARP,1660.73,202.84,202.84,0.00,14,0,0,No
 Zone Information, PERIMETER_BOT_ZN_1 ZN,0.0,0.00,0.00,0.00,24.96,2.16,1.37,1,1,1,0.00,49.91,0.00,4.57,0.00,2.74,2.74,568.77,TARP,TARP,207.34,136.92,71.63,65.28,6,1,0,Yes
 Zone Information, PERIMETER_BOT_ZN_2 ZN,0.0,0.00,0.00,0.00,47.82,16.64,1.37,1,1,1,45.34,49.91,0.00,33.27,0.00,2.74,2.74,360.08,TARP,TARP,131.26,91.28,47.75,43.52,6,1,0,Yes
 Zone Information, PERIMETER_BOT_ZN_3 ZN,0.0,0.00,0.00,0.00,24.96,31.11,1.37,1,1,1,0.00,49.91,28.70,33.27,0.00,2.74,2.74,568.77,TARP,TARP,207.34,136.92,71.63,65.28,6,1,0,Yes
 Zone Information, PERIMETER_BOT_ZN_4 ZN,0.0,0.00,0.00,0.00,2.09,16.64,1.37,1,1,1,0.00,4.57,0.00,33.27,0.00,2.74,2.74,360.05,TARP,TARP,131.25,91.28,47.75,43.52,6,1,0,Yes
 Zone Information, PERIMETER_MID_ZN_1 ZN,0.0,0.00,0.00,0.00,24.96,2.16,5.33,1,1,1,0.00,49.91,0.00,4.57,3.96,6.71,2.74,568.77,TARP,TARP,207.34,136.92,71.63,65.28,6,1,0,Yes
 Zone Information, PERIMETER_MID_ZN_2 ZN,0.0,0.00,0.00,0.00,47.82,16.64,5.33,1,1,1,45.34,49.91,0.00,33.27,3.96,6.71,2.74,360.08,TARP,TARP,131.26,91.28,47.75,43.52,6,1,0,Yes
 Zone Information, PERIMETER_MID_ZN_3 ZN,0.0,0.00,0.00,0.00,24.96,31.11,5.33,1,1,1,0.00,49.91,28.70,33.27,3.96,6.71,2.74,568.77,TARP,TARP,207.34,136.92,71.63,65.28,6,1,0,Yes
 Zone Information, PERIMETER_MID_ZN_4 ZN,0.0,0.00,0.00,0.00,2.09,16.64,5.33,1,1,1,0.00,4.57,0.00,33.27,3.96,6.71,2.74,360.05,TARP,TARP,131.25,91.28,47.75,43.52,6,1,0,Yes
 Zone Information, PERIMETER_TOP_ZN_1 ZN,0.0,0.00,0.00,0.00,24.96,2.16,9.30,1,1,1,0.00,49.91,0.00,4.57,7.92,10.67,2.74,568.77,TARP,TARP,207.34,136.92,71.63,65.28,6,1,0,Yes
 Zone Information, PERIMETER_TOP_ZN_2 ZN,0.0,0.00,0.00,0.00,47.82,16.64,9.30,1,1,1,45.34,49.91,0.00,33.27,7.92,10.67,2.74,360.08,TARP,TARP,131.26,91.28,47.75,43.52,6,1,0,Yes
 Zone Information, PERIMETER_TOP_ZN_3 ZN,0.0,0.00,0.00,0.00,24.96,31.11,9.30,1,1,1,0.00,49.91,28.70,33.27,7.92,10.67,2.74,568.77,TARP,TARP,207.34,136.92,71.63,65.28,6,1,0,Yes
 Zone Information, PERIMETER_TOP_ZN_4 ZN,0.0,0.00,0.00,0.00,2.09,16.64,9.30,1,1,1,0.00,4.57,0.00,33.27,7.92,10.67,2.74,360.05,TARP,TARP,131.25,91.28,47.75,43.52,6,1,0,Yes
 Zone Information, TOPFLOOR_PLENUM ZN,0.0,0.00,0.00,0.00,24.96,16.64,11.28,1,1,1,0.00,49.91,0.00,33.27,10.67,11.89,1.22,2024.76,TARP,TARP,1660.73,202.84,202.84,0.00,10,0,0,No
! <Zone Internal Gains Nominal>,Zone Name, Floor Area {m2},# Occupants,Area per Occupant {m2/person},Occupant per Area {person/m2},Interior Lighting {W/m2},Electric Load {W/m2},Gas Load {W/m2},Other Load {W/m2},Hot Water Eq {W/m2},Steam Equipment {W/m2},Sum Loads per Area {W/m2},Outdoor Controlled Baseboard Heat
 Zone Internal Gains Nominal, CORE_BOTTOM ZN,983.54,52.9,18.581,5.382E-002,8.826,40.849,0.000,0.000,0.000,0.000,49.676,No
 Zone Internal Gains Nominal, CORE_MID ZN,983.54,52.9,18.581,5.382E-002,8.826,8.073,0.000,0.000,0.000,0.000,16.899,No
 Zone Internal Gains Nominal, CORE_TOP ZN,983.54,52.9,18.581,5.382E-002,8.826,8.073,0.000,0.000,0.000,0.000,16.899,No
 Zone Internal Gains Nominal, FIRSTFLOOR_PLENUM ZN,1660.73,0.0,N/A,0.000,0.000,0.000,0.000,0.000,0.000,0.000,0.000,No
 Zone Internal Gains Nominal, MIDFLOOR_PLENUM ZN,1660.73,0.0,N/A,0.000,0.000,0.000,0.000,0.000,0.000,0.000,0.000,No
 Zone Internal Gains Nominal, PERIMETER_BOT_ZN_1 ZN,207.34,11.2,18.581,5.382E-002,8.826,8.073,0.000,0.000,0.000,0.000,16.899,No
 Zone Internal Gains Nominal, PERIMETER_BOT_ZN_2 ZN,131.26,7.1,18.581,5.382E-002,8.826,8.073,0.000,0.000,0.000,0.000,16.899,No
 Zone Internal Gains Nominal, PERIMETER_BOT_ZN_3 ZN,207.34,11.2,18.581,5.382E-002,8.826,8.073,0.000,0.000,0.000,0.000,16.899,No
 Zone Internal Gains Nominal, PERIMETER_BOT_ZN_4 ZN,131.25,7.1,18.581,5.382E-002,8.826,8.073,0.000,0.000,0.000,0.000,16.899,No
 Zone Internal Gains Nominal, PERIMETER_MID_ZN_1 ZN,207.34,11.2,18.581,5.382E-002,8.826,8.073,0.000,0.000,0.000,0.000,16.899,No
 Zone Internal Gains Nominal, PERIMETER_MID_ZN_2 ZN,131.26,7.1,18.581,5.382E-002,8.826,8.073,0.000,0.000,0.000,0.000,16.899,No
 Zone Internal Gains Nominal, PERIMETER_MID_ZN_3 ZN,207.34,11.2,18.581,5.382E-002,8.826,8.073,0.000,0.000,0.000,0.000,16.899,No
 Zone Internal Gains Nominal, PERIMETER_MID_ZN_4 ZN,131.25,7.1,18.581,5.382E-002,8.826,8.073,0.000,0.000,0.000,0.000,16.899,No
 Zone Internal Gains Nominal, PERIMETER_TOP_ZN_1 ZN,207.34,11.2,18.581,5.382E-002,8.826,8.073,0.000,0.000,0.000,0.000,16.899,No
 Zone Internal Gains Nominal, PERIMETER_TOP_ZN_2 ZN,131.26,7.1,18.581,5.382E-002,8.826,8.073,0.000,0.000,0.000,0.000,16.899,No
 Zone Internal Gains Nominal, PERIMETER_TOP_ZN_3 ZN,207.34,11.2,18.581,5.382E-002,8.826,8.073,0.000,0.000,0.000,0.000,16.899,No
 Zone Internal Gains Nominal, PERIMETER_TOP_ZN_4 ZN,131.25,7.1,18.581,5.382E-002,8.826,8.073,0.000,0.000,0.000,0.000,16.899,No
 Zone Internal Gains Nominal, TOPFLOOR_PLENUM ZN,1660.73,0.0,N/A,0.000,0.000,0.000,0.000,0.000,0.000,0.000,0.000,No
! <People Internal Gains Nominal>,Name,Schedule Name,Zone Name,Zone Floor Area {m2},# Zone Occupants,Number of People {},People/Floor Area {person/m2},Floor Area per person {m2/person},Fraction Radiant,Fraction Convected,Sensible Fraction Calculation,Activity level,ASHRAE 55 Warnings,Carbon Dioxide Generation Rate,Nominal Minimum Number of People,Nominal Maximum Number of People
 People Internal Gains Nominal, CORE_BOTTOM ZN OFFICE WHOLEBUILDING - MD OFFICE PEOPLE,OFFICEMEDIUM BLDG_OCC_SCH,CORE_BOTTOM ZN,983.54,52.9,52.9,5.382E-002,18.581,0.300,0.700,AutoCalculate,OFFICEMEDIUM ACTIVITY_SCH,No,3.8200E-008,0,53
 People Internal Gains Nominal, CORE_MID ZN OFFICE WHOLEBUILDING - MD OFFICE PEOPLE,OFFICEMEDIUM BLDG_OCC_SCH,CORE_MID ZN,983.54,52.9,52.9,5.382E-002,18.581,0.300,0.700,AutoCalculate,OFFICEMEDIUM ACTIVITY_SCH,No,3.8200E-008,0,53
 People Internal Gains Nominal, CORE_TOP ZN OFFICE WHOLEBUILDING - MD OFFICE PEOPLE,OFFICEMEDIUM BLDG_OCC_SCH,CORE_TOP ZN,983.54,52.9,52.9,5.382E-002,18.581,0.300,0.700,AutoCalculate,OFFICEMEDIUM ACTIVITY_SCH,No,3.8200E-008,0,53
 People Internal Gains Nominal, PERIMETER_BOT_ZN_1 ZN OFFICE WHOLEBUILDING - MD OFFICE PEOPLE,OFFICEMEDIUM BLDG_OCC_SCH,PERIMETER_BOT_ZN_1 ZN,207.34,11.2,11.2,5.382E-002,18.581,0.300,0.700,AutoCalculate,OFFICEMEDIUM ACTIVITY_SCH,No,3.8200E-008,0,11
 People Internal Gains Nominal, PERIMETER_BOT_ZN_2 ZN OFFICE WHOLEBUILDING - MD OFFICE PEOPLE,OFFICEMEDIUM BLDG_OCC_SCH,PERIMETER_BOT_ZN_2 ZN,131.26,7.1,7.1,5.382E-002,18.581,0.300,0.700,AutoCalculate,OFFICEMEDIUM ACTIVITY_SCH,No,3.8200E-008,0,7
 People Internal Gains Nominal, PERIMETER_BOT_ZN_3 ZN OFFICE WHOLEBUILDING - MD OFFICE PEOPLE,OFFICEMEDIUM BLDG_OCC_SCH,PERIMETER_BOT_ZN_3 ZN,207.34,11.2,11.2,5.382E-002,18.581,0.300,0.700,AutoCalculate,OFFICEMEDIUM ACTIVITY_SCH,No,3.8200E-008,0,11
 People Internal Gains Nominal, PERIMETER_BOT_ZN_4 ZN OFFICE WHOLEBUILDING - MD OFFICE PEOPLE,OFFICEMEDIUM BLDG_OCC_SCH,PERIMETER_BOT_ZN_4 ZN,131.25,7.1,7.1,5.382E-002,18.581,0.300,0.700,AutoCalculate,OFFICEMEDIUM ACTIVITY_SCH,No,3.8200E-008,0,7
 People Internal Gains Nominal, PERIMETER_MID_ZN_1 ZN OFFICE WHOLEBUILDING - MD OFFICE PEOPLE,OFFICEMEDIUM BLDG_OCC_SCH,PERIMETER_MID_ZN_1 ZN,207.34,11.2,11.2,5.382E-002,18.581,0.300,0.700,AutoCalculate,OFFICEMEDIUM ACTIVITY_SCH,No,3.8200E-008,0,11
 People Internal Gains Nominal, PERIMETER_MID_ZN_2 ZN OFFICE WHOLEBUILDING - MD OFFICE PEOPLE,OFFICEMEDIUM BLDG_OCC_SCH,PERIMETER_MID_ZN_2 ZN,131.26,7.1,7.1,5.382E-002,18.581,0.300,0.700,AutoCalculate,OFFICEMEDIUM ACTIVITY_SCH,No,3.8200E-008,0,7
 People Internal Gains Nominal, PERIMETER_MID_ZN_3 ZN OFFICE WHOLEBUILDING - MD OFFICE PEOPLE,OFFICEMEDIUM BLDG_OCC_SCH,PERIMETER_MID_ZN_3 ZN,207.34,11.2,11.2,5.382E-002,18.581,0.300,0.700,AutoCalculate,OFFICEMEDIUM ACTIVITY_SCH,No,3.8200E-008,0,11
 People Internal Gains Nominal, PERIMETER_MID_ZN_4 ZN OFFICE WHOLEBUILDING - MD OFFICE PEOPLE,OFFICEMEDIUM BLDG_OCC_SCH,PERIMETER_MID_ZN_4 ZN,131.25,7.1,7.1,5.382E-002,18.581,0.300,0.700,AutoCalculate,OFFICEMEDIUM ACTIVITY_SCH,No,3.8200E-008,0,7
 People Internal Gains Nominal, PERIMETER_TOP_ZN_1 ZN OFFICE WHOLEBUILDING - MD OFFICE PEOPLE,OFFICEMEDIUM BLDG_OCC_SCH,PERIMETER_TOP_ZN_1 ZN,207.34,11.2,11.2,5.382E-002,18.581,0.300,0.700,AutoCalculate,OFFICEMEDIUM ACTIVITY_SCH,No,3.8200E-008,0,11
 People Internal Gains Nominal, PERIMETER_TOP_ZN_2 ZN OFFICE WHOLEBUILDING - MD OFFICE PEOPLE,OFFICEMEDIUM BLDG_OCC_SCH,PERIMETER_TOP_ZN_2 ZN,131.26,7.1,7.1,5.382E-002,18.581,0.300,0.700,AutoCalculate,OFFICEMEDIUM ACTIVITY_SCH,No,3.8200E-008,0,7
 People Internal Gains Nominal, PERIMETER_TOP_ZN_3 ZN OFFICE WHOLEBUILDING - MD OFFICE PEOPLE,OFFICEMEDIUM BLDG_OCC_SCH,PERIMETER_TOP_ZN_3 ZN,207.34,11.2,11.2,5.382E-002,18.581,0.300,0.700,AutoCalculate,OFFICEMEDIUM ACTIVITY_SCH,No,3.8200E-008,0,11
 People Internal Gains Nominal, PERIMETER_TOP_ZN_4 ZN OFFICE WHOLEBUILDING - MD OFFICE PEOPLE,OFFICEMEDIUM BLDG_OCC_SCH,PERIMETER_TOP_ZN_4 ZN,131.25,7.1,7.1,5.382E-002,18.581,0.300,0.700,AutoCalculate,OFFICEMEDIUM ACTIVITY_SCH,No,3.8200E-008,0,7
! <Lights Internal Gains Nominal>,Name,Schedule Name,Zone Name,Zone Floor Area {m2},# Zone Occupants,Lighting Level {W},Lights/Floor Area {W/m2},Lights per person {W/person},Fraction Return Air,Fraction Radiant,Fraction Short Wave,Fraction Convected,Fraction Replaceable,End-Use Category,Nominal Minimum Lighting Level {W},Nominal Maximum Lighting Level {W}
 Lights Internal Gains Nominal, CORE_BOTTOM ZN OFFICE WHOLEBUILDING - MD OFFICE LIGHTS,OFFICEMEDIUM BLDG_LIGHT_SCH_2013,CORE_BOTTOM ZN,983.54,52.9,8681.094,8.826,164.000,0.000,0.700,0.200,0.100,1.000,General,0.000,8681.094
 Lights Internal Gains Nominal, CORE_MID ZN OFFICE WHOLEBUILDING - MD OFFICE LIGHTS,OFFICEMEDIUM BLDG_LIGHT_SCH_2013,CORE_MID ZN,983.54,52.9,8681.094,8.826,164.000,0.000,0.700,0.200,0.100,1.000,General,0.000,8681.094
 Lights Internal Gains Nominal, CORE_TOP ZN OFFICE WHOLEBUILDING - MD OFFICE LIGHTS,OFFICEMEDIUM BLDG_LIGHT_SCH_2013,CORE_TOP ZN,983.54,52.9,8681.094,8.826,164.000,0.000,0.700,0.200,0.100,1.000,General,0.000,8681.094
 Lights Internal Gains Nominal, PERIMETER_BOT_ZN_1 ZN OFFICE WHOLEBUILDING - MD OFFICE LIGHTS,OFFICEMEDIUM BLDG_LIGHT_SCH_2013,PERIMETER_BOT_ZN_1 ZN,207.34,11.2,1830.051,8.826,164.000,0.000,0.700,0.200,0.100,1.000,General,0.000,1830.051
 Lights Internal Gains Nominal, PERIMETER_BOT_ZN_2 ZN OFFICE WHOLEBUILDING - MD OFFICE LIGHTS,OFFICEMEDIUM BLDG_LIGHT_SCH_2013,PERIMETER_BOT_ZN_2 ZN,131.26,7.1,1158.573,8.826,164.000,0.000,0.700,0.200,0.100,1.000,General,0.000,1158.573
 Lights Internal Gains Nominal, PERIMETER_BOT_ZN_3 ZN OFFICE WHOLEBUILDING - MD OFFICE LIGHTS,OFFICEMEDIUM BLDG_LIGHT_SCH_2013,PERIMETER_BOT_ZN_3 ZN,207.34,11.2,1830.051,8.826,164.000,0.000,0.700,0.200,0.100,1.000,General,0.000,1830.051
 Lights Internal Gains Nominal, PERIMETER_BOT_ZN_4 ZN OFFICE WHOLEBUILDING - MD OFFICE LIGHTS,OFFICEMEDIUM BLDG_LIGHT_SCH_2013,PERIMETER_BOT_ZN_4 ZN,131.25,7.1,1158.497,8.826,164.000,0.000,0.700,0.200,0.100,1.000,General,0.000,1158.497
 Lights Internal Gains Nominal, PERIMETER_MID_ZN_1 ZN OFFICE WHOLEBUILDING - MD OFFICE LIGHTS,OFFICEMEDIUM BLDG_LIGHT_SCH_2013,PERIMETER_MID_ZN_1 ZN,207.34,11.2,1830.051,8.826,164.000,0.000,0.700,0.200,0.100,1.000,General,0.000,1830.051
 Lights Internal Gains Nominal, PERIMETER_MID_ZN_2 ZN OFFICE WHOLEBUILDING - MD OFFICE LIGHTS,OFFICEMEDIUM BLDG_LIGHT_SCH_2013,PERIMETER_MID_ZN_2 ZN,131.26,7.1,1158.573,8.826,164.000,0.000,0.700,0.200,0.100,1.000,General,0.000,1158.573
 Lights Internal Gains Nominal, PERIMETER_MID_ZN_3 ZN OFFICE WHOLEBUILDING - MD OFFICE LIGHTS,OFFICEMEDIUM BLDG_LIGHT_SCH_2013,PERIMETER_MID_ZN_3 ZN,207.34,11.2,1830.051,8.826,164.000,0.000,0.700,0.200,0.100,1.000,General,0.000,1830.051
 Lights Internal Gains Nominal, PERIMETER_MID_ZN_4 ZN OFFICE WHOLEBUILDING - MD OFFICE LIGHTS,OFFICEMEDIUM BLDG_LIGHT_SCH_2013,PERIMETER_MID_ZN_4 ZN,131.25,7.1,1158.497,8.826,164.000,0.000,0.700,0.200,0.100,1.000,General,0.000,1158.497
 Lights Internal Gains Nominal, PERIMETER_TOP_ZN_1 ZN OFFICE WHOLEBUILDING - MD OFFICE LIGHTS,OFFICEMEDIUM BLDG_LIGHT_SCH_2013,PERIMETER_TOP_ZN_1 ZN,207.34,11.2,1830.051,8.826,164.000,0.000,0.700,0.200,0.100,1.000,General,0.000,1830.051
 Lights Internal Gains Nominal, PERIMETER_TOP_ZN_2 ZN OFFICE WHOLEBUILDING - MD OFFICE LIGHTS,OFFICEMEDIUM BLDG_LIGHT_SCH_2013,PERIMETER_TOP_ZN_2 ZN,131.26,7.1,1158.573,8.826,164.000,0.000,0.700,0.200,0.100,1.000,General,0.000,1158.573
 Lights Internal Gains Nominal, PERIMETER_TOP_ZN_3 ZN OFFICE WHOLEBUILDING - MD OFFICE LIGHTS,OFFICEMEDIUM BLDG_LIGHT_SCH_2013,PERIMETER_TOP_ZN_3 ZN,207.34,11.2,1830.051,8.826,164.000,0.000,0.700,0.200,0.100,1.000,General,0.000,1830.051
 Lights Internal Gains Nominal, PERIMETER_TOP_ZN_4 ZN OFFICE WHOLEBUILDING - MD OFFICE LIGHTS,OFFICEMEDIUM BLDG_LIGHT_SCH_2013,PERIMETER_TOP_ZN_4 ZN,131.25,7.1,1158.497,8.826,164.000,0.000,0.700,0.200,0.100,1.000,General,0.000,1158.497
! <ElectricEquipment Internal Gains Nominal>,Name,Schedule Name,Zone Name,Zone Floor Area {m2},# Zone Occupants,Equipment Level {W},Equipment/Floor Area {W/m2},Equipment per person {W/person},Fraction Latent,Fraction Radiant,Fraction Lost,Fraction Convected,End-Use SubCategory,Nominal Minimum Equipment Level {W},Nominal Maximum Equipment Level {W}
 ElectricEquipment Internal Gains Nominal, 2 ELEVATOR FANS,OFFICEMEDIUM ELEV_LIGHT_FAN_SCH_ADD_DF,CORE_BOTTOM ZN,983.54,52.9,61.915,6.295E-002,1.170,0.000,0.500,0.000,0.500,General,0.000,42.721
 ElectricEquipment Internal Gains Nominal, 2 ELEVATOR LIFT MOTORS,OFFICEMEDIUM BLDG_ELEVATORS,CORE_BOTTOM ZN,983.54,52.9,32110.000,32.647,606.610,0.000,0.500,0.000,0.500,General,0.000,22155.900
 ElectricEquipment Internal Gains Nominal, 2 ELEVATOR LIGHTS,OFFICEMEDIUM ELEV_LIGHT_FAN_SCH_ADD_DF,CORE_BOTTOM ZN,983.54,52.9,64.697,6.578E-002,1.222,0.000,0.500,0.000,0.500,General,0.000,44.641
 ElectricEquipment Internal Gains Nominal, CORE_BOTTOM ZN OFFICE WHOLEBUILDING - MD OFFICE ELEC EQUIP,OFFICEMEDIUM BLDG_EQUIP_SCH_2013,CORE_BOTTOM ZN,983.54,52.9,7940.025,8.073,150.000,0.000,0.500,0.000,0.500,General,0.000,7940.025
 ElectricEquipment Internal Gains Nominal, CORE_MID ZN OFFICE WHOLEBUILDING - MD OFFICE ELEC EQUIP,OFFICEMEDIUM BLDG_EQUIP_SCH_2013,CORE_MID ZN,983.54,52.9,7940.025,8.073,150.000,0.000,0.500,0.000,0.500,General,0.000,7940.025
 ElectricEquipment Internal Gains Nominal, CORE_TOP ZN OFFICE WHOLEBUILDING - MD OFFICE ELEC EQUIP,OFFICEMEDIUM BLDG_EQUIP_SCH_2013,CORE_TOP ZN,983.54,52.9,7940.025,8.073,150.000,0.000,0.500,0.000,0.500,General,0.000,7940.025
 ElectricEquipment Internal Gains Nominal, PERIMETER_BOT_ZN_1 ZN OFFICE WHOLEBUILDING - MD OFFICE ELEC EQUIP,OFFICEMEDIUM BLDG_EQUIP_SCH_2013,PERIMETER_BOT_ZN_1 ZN,207.34,11.2,1673.827,8.073,150.000,0.000,0.500,0.000,0.500,General,0.000,1673.827
 ElectricEquipment Internal Gains Nominal, PERIMETER_BOT_ZN_2 ZN OFFICE WHOLEBUILDING - MD OFFICE ELEC EQUIP,OFFICEMEDIUM BLDG_EQUIP_SCH_2013,PERIMETER_BOT_ZN_2 ZN,131.26,7.1,1059.671,8.073,150.000,0.000,0.500,0.000,0.500,General,0.000,1059.671
 ElectricEquipment Internal Gains Nominal, PERIMETER_BOT_ZN_3 ZN OFFICE WHOLEBUILDING - MD OFFICE ELEC EQUIP,OFFICEMEDIUM BLDG_EQUIP_SCH_2013,PERIMETER_BOT_ZN_3 ZN,207.34,11.2,1673.827,8.073,150.000,0.000,0.500,0.000,0.500,General,0.000,1673.827
 ElectricEquipment Internal Gains Nominal, PERIMETER_BOT_ZN_4 ZN OFFICE WHOLEBUILDING - MD OFFICE ELEC EQUIP,OFFICEMEDIUM BLDG_EQUIP_SCH_2013,PERIMETER_BOT_ZN_4 ZN,131.25,7.1,1059.601,8.073,150.000,0.000,0.500,0.000,0.500,General,0.000,1059.601
 ElectricEquipment Internal Gains Nominal, PERIMETER_MID_ZN_1 ZN OFFICE WHOLEBUILDING - MD OFFICE ELEC EQUIP,OFFICEMEDIUM BLDG_EQUIP_SCH_2013,PERIMETER_MID_ZN_1 ZN,207.34,11.2,1673.827,8.073,150.000,0.000,0.500,0.000,0.500,General,0.000,1673.827
 ElectricEquipment Internal Gains Nominal, PERIMETER_MID_ZN_2 ZN OFFICE WHOLEBUILDING - MD OFFICE ELEC EQUIP,OFFICEMEDIUM BLDG_EQUIP_SCH_2013,PERIMETER_MID_ZN_2 ZN,131.26,7.1,1059.671,8.073,150.000,0.000,0.500,0.000,0.500,General,0.000,1059.671
 ElectricEquipment Internal Gains Nominal, PERIMETER_MID_ZN_3 ZN OFFICE WHOLEBUILDING - MD OFFICE ELEC EQUIP,OFFICEMEDIUM BLDG_EQUIP_SCH_2013,PERIMETER_MID_ZN_3 ZN,207.34,11.2,1673.827,8.073,150.000,0.000,0.500,0.000,0.500,General,0.000,1673.827
 ElectricEquipment Internal Gains Nominal, PERIMETER_MID_ZN_4 ZN OFFICE WHOLEBUILDING - MD OFFICE ELEC EQUIP,OFFICEMEDIUM BLDG_EQUIP_SCH_2013,PERIMETER_MID_ZN_4 ZN,131.25,7.1,1059.601,8.073,150.000,0.000,0.500,0.000,0.500,General,0.000,1059.601
 ElectricEquipment Internal Gains Nominal, PERIMETER_TOP_ZN_1 ZN OFFICE WHOLEBUILDING - MD OFFICE ELEC EQUIP,OFFICEMEDIUM BLDG_EQUIP_SCH_2013,PERIMETER_TOP_ZN_1 ZN,207.34,11.2,1673.827,8.073,150.000,0.000,0.500,0.000,0.500,General,0.000,1673.827
 ElectricEquipment Internal Gains Nominal, PERIMETER_TOP_ZN_2 ZN OFFICE WHOLEBUILDING - MD OFFICE ELEC EQUIP,OFFICEMEDIUM BLDG_EQUIP_SCH_2013,PERIMETER_TOP_ZN_2 ZN,131.26,7.1,1059.671,8.073,150.000,0.000,0.500,0.000,0.500,General,0.000,1059.671
 ElectricEquipment Internal Gains Nominal, PERIMETER_TOP_ZN_3 ZN OFFICE WHOLEBUILDING - MD OFFICE ELEC EQUIP,OFFICEMEDIUM BLDG_EQUIP_SCH_2013,PERIMETER_TOP_ZN_3 ZN,207.34,11.2,1673.827,8.073,150.000,0.000,0.500,0.000,0.500,General,0.000,1673.827
 ElectricEquipment Internal Gains Nominal, PERIMETER_TOP_ZN_4 ZN OFFICE WHOLEBUILDING - MD OFFICE ELEC EQUIP,OFFICEMEDIUM BLDG_EQUIP_SCH_2013,PERIMETER_TOP_ZN_4 ZN,131.25,7.1,1059.601,8.073,150.000,0.000,0.500,0.000,0.500,General,0.000,1059.601
! <Shadowing/Sun Position Calculations Annual Simulations>, Calculation Method, Value {days}, Allowable Number Figures in Shadow Overlap {}, Polygon Clipping Algorithm, Sky Diffuse Modeling Algorithm, External Shading Calculation Method, Output External Shading Calculation Results, Disable Self-Shading Within Shading Zone Groups, Disable Self-Shading From Shading Zone Groups to Other Zones
Shadowing/Sun Position Calculations Annual Simulations,AverageOverDaysInFrequency,7,15000,SutherlandHodgman,SimpleSkyDiffuseModeling,InternalCalculation,No,No,No
! <Zone/Window Adjacency Daylighting Counts>, Zone Name, Number of Exterior Windows, Number of Exterior Windows in Adjacent Zones
Zone/Window Adjacency Daylighting Counts, PERIMETER_BOT_ZN_1 ZN,1,0
Zone/Window Adjacency Daylighting Counts, PERIMETER_BOT_ZN_2 ZN,1,0
Zone/Window Adjacency Daylighting Counts, PERIMETER_BOT_ZN_3 ZN,1,0
Zone/Window Adjacency Daylighting Counts, PERIMETER_BOT_ZN_4 ZN,1,0
Zone/Window Adjacency Daylighting Counts, PERIMETER_MID_ZN_1 ZN,1,0
Zone/Window Adjacency Daylighting Counts, PERIMETER_MID_ZN_2 ZN,1,0
Zone/Window Adjacency Daylighting Counts, PERIMETER_MID_ZN_3 ZN,1,0
Zone/Window Adjacency Daylighting Counts, PERIMETER_MID_ZN_4 ZN,1,0
Zone/Window Adjacency Daylighting Counts, PERIMETER_TOP_ZN_1 ZN,1,0
Zone/Window Adjacency Daylighting Counts, PERIMETER_TOP_ZN_2 ZN,1,0
Zone/Window Adjacency Daylighting Counts, PERIMETER_TOP_ZN_3 ZN,1,0
Zone/Window Adjacency Daylighting Counts, PERIMETER_TOP_ZN_4 ZN,1,0
! <Zone/Window Adjacency Daylighting Matrix>, Zone Name, Number of Adjacent Zones with Windows,Adjacent Zone Names - 1st 100 (max)
Zone/Window Adjacency Daylighting Matrix, PERIMETER_BOT_ZN_1 ZN,0
Zone/Window Adjacency Daylighting Matrix, PERIMETER_BOT_ZN_2 ZN,0
Zone/Window Adjacency Daylighting Matrix, PERIMETER_BOT_ZN_3 ZN,0
Zone/Window Adjacency Daylighting Matrix, PERIMETER_BOT_ZN_4 ZN,0
Zone/Window Adjacency Daylighting Matrix, PERIMETER_MID_ZN_1 ZN,0
Zone/Window Adjacency Daylighting Matrix, PERIMETER_MID_ZN_2 ZN,0
Zone/Window Adjacency Daylighting Matrix, PERIMETER_MID_ZN_3 ZN,0
Zone/Window Adjacency Daylighting Matrix, PERIMETER_MID_ZN_4 ZN,0
Zone/Window Adjacency Daylighting Matrix, PERIMETER_TOP_ZN_1 ZN,0
Zone/Window Adjacency Daylighting Matrix, PERIMETER_TOP_ZN_2 ZN,0
Zone/Window Adjacency Daylighting Matrix, PERIMETER_TOP_ZN_3 ZN,0
Zone/Window Adjacency Daylighting Matrix, PERIMETER_TOP_ZN_4 ZN,0
! <Water Heater Information>,Type,Name,Volume {m3},Maximum Capacity {W},Standard Rated Recovery Efficiency, Standard Rated Energy Factor
! <ZoneInfiltration Airflow Stats Nominal>,Name,Schedule Name,Zone Name, Zone Floor Area {m2}, # Zone Occupants,Design Volume Flow Rate {m3/s},Volume Flow Rate/Floor Area {m3/s/m2},Volume Flow Rate/Exterior Surface Area {m3/s/m2},ACH - Air Changes per Hour,Equation A - Constant Term Coefficient {},Equation B - Temperature Term Coefficient {1/C},Equation C - Velocity Term Coefficient {s/m}, Equation D - Velocity Squared Term Coefficient {s2/m2}
 ZoneInfiltration Airflow Stats Nominal, FIRSTFLOOR_PLENUM INFILTRATION,OFFICEMEDIUM INFIL_SCH_PNNL,FIRSTFLOOR_PLENUM ZN,1660.73,0.0,0.116,6.957E-005,5.696E-004,0.205,0.000,0.000,0.224,0.000
 ZoneInfiltration Airflow Stats Nominal, MIDFLOOR_PLENUM INFILTRATION,OFFICEMEDIUM INFIL_SCH_PNNL,MIDFLOOR_PLENUM ZN,1660.73,0.0,0.116,6.957E-005,5.696E-004,0.205,0.000,0.000,0.224,0.000
 ZoneInfiltration Airflow Stats Nominal, ENTRY DOOR INFILTRATION,OFFICEMEDIUM INFIL_DOOR_OPENING_SCH,PERIMETER_BOT_ZN_1 ZN,207.34,11.2,1.043,5.030E-003,7.618E-003,6.602,1.000,0.000,0.000,0.000
 ZoneInfiltration Airflow Stats Nominal, PERIMETER_BOT_ZN_1 INFILTRATION,OFFICEMEDIUM INFIL_SCH_PNNL,PERIMETER_BOT_ZN_1 ZN,207.34,11.2,7.798E-002,3.761E-004,5.696E-004,0.494,0.000,0.000,0.224,0.000
 ZoneInfiltration Airflow Stats Nominal, PERIMETER_BOT_ZN_2 INFILTRATION,OFFICEMEDIUM INFIL_SCH_PNNL,PERIMETER_BOT_ZN_2 ZN,131.26,7.1,5.199E-002,3.961E-004,5.696E-004,0.520,0.000,0.000,0.224,0.000
 ZoneInfiltration Airflow Stats Nominal, PERIMETER_BOT_ZN_3 INFILTRATION,OFFICEMEDIUM INFIL_SCH_PNNL,PERIMETER_BOT_ZN_3 ZN,207.34,11.2,7.798E-002,3.761E-004,5.696E-004,0.494,0.000,0.000,0.224,0.000
 ZoneInfiltration Airflow Stats Nominal, PERIMETER_BOT_ZN_4 INFILTRATION,OFFICEMEDIUM INFIL_SCH_PNNL,PERIMETER_BOT_ZN_4 ZN,131.25,7.1,5.199E-002,3.961E-004,5.696E-004,0.520,0.000,0.000,0.224,0.000
 ZoneInfiltration Airflow Stats Nominal, PERIMETER_MID_ZN_1 INFILTRATION,OFFICEMEDIUM INFIL_SCH_PNNL,PERIMETER_MID_ZN_1 ZN,207.34,11.2,7.798E-002,3.761E-004,5.696E-004,0.494,0.000,0.000,0.224,0.000
 ZoneInfiltration Airflow Stats Nominal, PERIMETER_MID_ZN_2 INFILTRATION,OFFICEMEDIUM INFIL_SCH_PNNL,PERIMETER_MID_ZN_2 ZN,131.26,7.1,5.199E-002,3.961E-004,5.696E-004,0.520,0.000,0.000,0.224,0.000
 ZoneInfiltration Airflow Stats Nominal, PERIMETER_MID_ZN_3 INFILTRATION,OFFICEMEDIUM INFIL_SCH_PNNL,PERIMETER_MID_ZN_3 ZN,207.34,11.2,7.798E-002,3.761E-004,5.696E-004,0.494,0.000,0.000,0.224,0.000
 ZoneInfiltration Airflow Stats Nominal, PERIMETER_MID_ZN_4 INFILTRATION,OFFICEMEDIUM INFIL_SCH_PNNL,PERIMETER_MID_ZN_4 ZN,131.25,7.1,5.199E-002,3.961E-004,5.696E-004,0.520,0.000,0.000,0.224,0.000
 ZoneInfiltration Airflow Stats Nominal, PERIMETER_TOP_ZN_1 INFILTRATION,OFFICEMEDIUM INFIL_SCH_PNNL,PERIMETER_TOP_ZN_1 ZN,207.34,11.2,7.798E-002,3.761E-004,5.696E-004,0.494,0.000,0.000,0.224,0.000
 ZoneInfiltration Airflow Stats Nominal, PERIMETER_TOP_ZN_2 INFILTRATION,OFFICEMEDIUM INFIL_SCH_PNNL,PERIMETER_TOP_ZN_2 ZN,131.26,7.1,5.199E-002,3.961E-004,5.696E-004,0.520,0.000,0.000,0.224,0.000
 ZoneInfiltration Airflow Stats Nominal, PERIMETER_TOP_ZN_3 INFILTRATION,OFFICEMEDIUM INFIL_SCH_PNNL,PERIMETER_TOP_ZN_3 ZN,207.34,11.2,7.798E-002,3.761E-004,5.696E-004,0.494,0.000,0.000,0.224,0.000
 ZoneInfiltration Airflow Stats Nominal, PERIMETER_TOP_ZN_4 INFILTRATION,OFFICEMEDIUM INFIL_SCH_PNNL,PERIMETER_TOP_ZN_4 ZN,131.25,7.1,5.199E-002,3.961E-004,5.696E-004,0.520,0.000,0.000,0.224,0.000
 ZoneInfiltration Airflow Stats Nominal, TOPFLOOR_PLENUM INFILTRATION,OFFICEMEDIUM INFIL_SCH_PNNL,TOPFLOOR_PLENUM ZN,1660.73,0.0,0.116,6.957E-005,6.199E-005,0.205,0.000,0.000,0.224,0.000
! <AirFlow Model>, Simple
 AirFlow Model, Simple
! <RoomAir Model>, Zone Name, Mixing/Mundt/UCSDDV/UCSDCV/UCSDUFI/UCSDUFE/User Defined
RoomAir Model,CORE_BOTTOM ZN,Mixing/Well-Stirred
RoomAir Model,CORE_MID ZN,Mixing/Well-Stirred
RoomAir Model,CORE_TOP ZN,Mixing/Well-Stirred
RoomAir Model,FIRSTFLOOR_PLENUM ZN,Mixing/Well-Stirred
RoomAir Model,MIDFLOOR_PLENUM ZN,Mixing/Well-Stirred
RoomAir Model,PERIMETER_BOT_ZN_1 ZN,Mixing/Well-Stirred
RoomAir Model,PERIMETER_BOT_ZN_2 ZN,Mixing/Well-Stirred
RoomAir Model,PERIMETER_BOT_ZN_3 ZN,Mixing/Well-Stirred
RoomAir Model,PERIMETER_BOT_ZN_4 ZN,Mixing/Well-Stirred
RoomAir Model,PERIMETER_MID_ZN_1 ZN,Mixing/Well-Stirred
RoomAir Model,PERIMETER_MID_ZN_2 ZN,Mixing/Well-Stirred
RoomAir Model,PERIMETER_MID_ZN_3 ZN,Mixing/Well-Stirred
RoomAir Model,PERIMETER_MID_ZN_4 ZN,Mixing/Well-Stirred
RoomAir Model,PERIMETER_TOP_ZN_1 ZN,Mixing/Well-Stirred
RoomAir Model,PERIMETER_TOP_ZN_2 ZN,Mixing/Well-Stirred
RoomAir Model,PERIMETER_TOP_ZN_3 ZN,Mixing/Well-Stirred
RoomAir Model,PERIMETER_TOP_ZN_4 ZN,Mixing/Well-Stirred
RoomAir Model,TOPFLOOR_PLENUM ZN,Mixing/Well-Stirred
! <AirflowNetwork Model:Control>, No Multizone or Distribution/Multizone with Distribution/Multizone without Distribution/Multizone with Distribution only during Fan Operation
AirflowNetwork Model:Control,NoMultizoneOrDistribution
! <Zone Volume Capacitance Multiplier>, Sensible Heat Capacity Multiplier, Moisture Capacity Multiplier, Carbon Dioxide Capacity Multiplier, Generic Contaminant Capacity Multiplier
Zone Volume Capacitance Multiplier,   1.000 ,   1.000,   1.000,   1.000
! <Zone Sizing DOAS Inputs>, Zone Name, DOAS Design Control Strategy, DOAS Design Low Setpoint Temperature {C}, DOAS Design High Setpoint Temperature {C} 
 Zone Sizing DOAS Inputs, CORE_BOTTOM ZN, NeutralSupplyAir, 15.556, 21.111
 Zone Sizing DOAS Inputs, CORE_MID ZN, NeutralSupplyAir, 15.556, 21.111
 Zone Sizing DOAS Inputs, CORE_TOP ZN, NeutralSupplyAir, 15.556, 21.111
 Zone Sizing DOAS Inputs, PERIMETER_BOT_ZN_1 ZN, NeutralSupplyAir, 15.556, 21.111
 Zone Sizing DOAS Inputs, PERIMETER_BOT_ZN_2 ZN, NeutralSupplyAir, 15.556, 21.111
 Zone Sizing DOAS Inputs, PERIMETER_BOT_ZN_3 ZN, NeutralSupplyAir, 15.556, 21.111
 Zone Sizing DOAS Inputs, PERIMETER_BOT_ZN_4 ZN, NeutralSupplyAir, 15.556, 21.111
 Zone Sizing DOAS Inputs, PERIMETER_MID_ZN_1 ZN, NeutralSupplyAir, 15.556, 21.111
 Zone Sizing DOAS Inputs, PERIMETER_MID_ZN_2 ZN, NeutralSupplyAir, 15.556, 21.111
 Zone Sizing DOAS Inputs, PERIMETER_MID_ZN_3 ZN, NeutralSupplyAir, 15.556, 21.111
 Zone Sizing DOAS Inputs, PERIMETER_MID_ZN_4 ZN, NeutralSupplyAir, 15.556, 21.111
 Zone Sizing DOAS Inputs, PERIMETER_TOP_ZN_1 ZN, NeutralSupplyAir, 15.556, 21.111
 Zone Sizing DOAS Inputs, PERIMETER_TOP_ZN_2 ZN, NeutralSupplyAir, 15.556, 21.111
 Zone Sizing DOAS Inputs, PERIMETER_TOP_ZN_3 ZN, NeutralSupplyAir, 15.556, 21.111
 Zone Sizing DOAS Inputs, PERIMETER_TOP_ZN_4 ZN, NeutralSupplyAir, 15.556, 21.111
! <Load Timesteps in Zone Design Calculation Averaging Window>, Value
 Load Timesteps in Zone Design Calculation Averaging Window,    6
! <Heating Sizing Factor Information>, Sizing Factor ID, Value
 Heating Sizing Factor Information, Global,   1.0000    
! <Cooling Sizing Factor Information>, Sizing Factor ID, Value
 Cooling Sizing Factor Information, Global,   1.0000    
! <Sky Daylight Factors>, MonthAndDay, Zone Name, Window Name, Daylight Fac: Ref Pt #1, Daylight Fac: Ref Pt #2
 Clear Sky Daylight Factors,07/21,PERIMETER_BOT_ZN_1 ZN,PERIMETER_BOT_ZN_1_WALL_SOUTH_WINDOW,4.3172E-002,2.3824E-002
 Clear Turbid Sky Daylight Factors,07/21,PERIMETER_BOT_ZN_1 ZN,PERIMETER_BOT_ZN_1_WALL_SOUTH_WINDOW,3.9568E-002,2.1354E-002
 Intermediate Sky Daylight Factors,07/21,PERIMETER_BOT_ZN_1 ZN,PERIMETER_BOT_ZN_1_WALL_SOUTH_WINDOW,2.5701E-002,1.3269E-002
 Overcast Sky Daylight Factors,07/21,PERIMETER_BOT_ZN_1 ZN,PERIMETER_BOT_ZN_1_WALL_SOUTH_WINDOW,3.8118E-002,1.8064E-002
 Clear Sky Daylight Factors,07/21,PERIMETER_BOT_ZN_2 ZN,PERIMETER_BOT_ZN_2_WALL_EAST_WINDOW,4.1774E-002,2.3337E-002
 Clear Turbid Sky Daylight Factors,07/21,PERIMETER_BOT_ZN_2 ZN,PERIMETER_BOT_ZN_2_WALL_EAST_WINDOW,3.7917E-002,2.0768E-002
 Intermediate Sky Daylight Factors,07/21,PERIMETER_BOT_ZN_2 ZN,PERIMETER_BOT_ZN_2_WALL_EAST_WINDOW,2.4580E-002,1.2869E-002
 Overcast Sky Daylight Factors,07/21,PERIMETER_BOT_ZN_2 ZN,PERIMETER_BOT_ZN_2_WALL_EAST_WINDOW,3.8461E-002,1.8277E-002
 Clear Sky Daylight Factors,07/21,PERIMETER_BOT_ZN_3 ZN,PERIMETER_BOT_ZN_3_WALL_NORTH_WINDOW,3.3649E-002,1.9930E-002
 Clear Turbid Sky Daylight Factors,07/21,PERIMETER_BOT_ZN_3 ZN,PERIMETER_BOT_ZN_3_WALL_NORTH_WINDOW,2.8962E-002,1.7058E-002
 Intermediate Sky Daylight Factors,07/21,PERIMETER_BOT_ZN_3 ZN,PERIMETER_BOT_ZN_3_WALL_NORTH_WINDOW,1.7771E-002,1.0028E-002
 Overcast Sky Daylight Factors,07/21,PERIMETER_BOT_ZN_3 ZN,PERIMETER_BOT_ZN_3_WALL_NORTH_WINDOW,3.8118E-002,1.8064E-002
 Clear Sky Daylight Factors,07/21,PERIMETER_BOT_ZN_4 ZN,PERIMETER_BOT_ZN_4_WALL_WEST_WINDOW,3.4989E-002,2.0561E-002
 Clear Turbid Sky Daylight Factors,07/21,PERIMETER_BOT_ZN_4 ZN,PERIMETER_BOT_ZN_4_WALL_WEST_WINDOW,3.0365E-002,1.7706E-002
 Intermediate Sky Daylight Factors,07/21,PERIMETER_BOT_ZN_4 ZN,PERIMETER_BOT_ZN_4_WALL_WEST_WINDOW,1.8904E-002,1.0549E-002
 Overcast Sky Daylight Factors,07/21,PERIMETER_BOT_ZN_4 ZN,PERIMETER_BOT_ZN_4_WALL_WEST_WINDOW,3.8461E-002,1.8277E-002
 Clear Sky Daylight Factors,07/21,PERIMETER_MID_ZN_1 ZN,PERIMETER_MID_ZN_1_WALL_SOUTH_WINDOW,4.4415E-002,2.5068E-002
 Clear Turbid Sky Daylight Factors,07/21,PERIMETER_MID_ZN_1 ZN,PERIMETER_MID_ZN_1_WALL_SOUTH_WINDOW,4.0745E-002,2.2530E-002
 Intermediate Sky Daylight Factors,07/21,PERIMETER_MID_ZN_1 ZN,PERIMETER_MID_ZN_1_WALL_SOUTH_WINDOW,2.6638E-002,1.4206E-002
 Overcast Sky Daylight Factors,07/21,PERIMETER_MID_ZN_1 ZN,PERIMETER_MID_ZN_1_WALL_SOUTH_WINDOW,3.9186E-002,1.9132E-002
 Clear Sky Daylight Factors,07/21,PERIMETER_MID_ZN_2 ZN,PERIMETER_MID_ZN_2_WALL_EAST_WINDOW,4.3057E-002,2.4620E-002
 Clear Turbid Sky Daylight Factors,07/21,PERIMETER_MID_ZN_2 ZN,PERIMETER_MID_ZN_2_WALL_EAST_WINDOW,3.9125E-002,2.1975E-002
 Intermediate Sky Daylight Factors,07/21,PERIMETER_MID_ZN_2 ZN,PERIMETER_MID_ZN_2_WALL_EAST_WINDOW,2.5546E-002,1.3835E-002
 Overcast Sky Daylight Factors,07/21,PERIMETER_MID_ZN_2 ZN,PERIMETER_MID_ZN_2_WALL_EAST_WINDOW,3.9595E-002,1.9411E-002
 Clear Sky Daylight Factors,07/21,PERIMETER_MID_ZN_3 ZN,PERIMETER_MID_ZN_3_WALL_NORTH_WINDOW,3.4717E-002,2.0998E-002
 Clear Turbid Sky Daylight Factors,07/21,PERIMETER_MID_ZN_3 ZN,PERIMETER_MID_ZN_3_WALL_NORTH_WINDOW,2.9940E-002,1.8035E-002
 Intermediate Sky Daylight Factors,07/21,PERIMETER_MID_ZN_3 ZN,PERIMETER_MID_ZN_3_WALL_NORTH_WINDOW,1.8541E-002,1.0798E-002
 Overcast Sky Daylight Factors,07/21,PERIMETER_MID_ZN_3 ZN,PERIMETER_MID_ZN_3_WALL_NORTH_WINDOW,3.9186E-002,1.9132E-002
 Clear Sky Daylight Factors,07/21,PERIMETER_MID_ZN_4 ZN,PERIMETER_MID_ZN_4_WALL_WEST_WINDOW,3.6143E-002,2.1715E-002
 Clear Turbid Sky Daylight Factors,07/21,PERIMETER_MID_ZN_4 ZN,PERIMETER_MID_ZN_4_WALL_WEST_WINDOW,3.1427E-002,1.8768E-002
 Intermediate Sky Daylight Factors,07/21,PERIMETER_MID_ZN_4 ZN,PERIMETER_MID_ZN_4_WALL_WEST_WINDOW,1.9749E-002,1.1394E-002
 Overcast Sky Daylight Factors,07/21,PERIMETER_MID_ZN_4 ZN,PERIMETER_MID_ZN_4_WALL_WEST_WINDOW,3.9595E-002,1.9411E-002
 Clear Sky Daylight Factors,07/21,PERIMETER_TOP_ZN_1 ZN,PERIMETER_TOP_ZN_1_WALL_SOUTH_WINDOW,4.4415E-002,2.5068E-002
 Clear Turbid Sky Daylight Factors,07/21,PERIMETER_TOP_ZN_1 ZN,PERIMETER_TOP_ZN_1_WALL_SOUTH_WINDOW,4.0745E-002,2.2530E-002
 Intermediate Sky Daylight Factors,07/21,PERIMETER_TOP_ZN_1 ZN,PERIMETER_TOP_ZN_1_WALL_SOUTH_WINDOW,2.6638E-002,1.4206E-002
 Overcast Sky Daylight Factors,07/21,PERIMETER_TOP_ZN_1 ZN,PERIMETER_TOP_ZN_1_WALL_SOUTH_WINDOW,3.9186E-002,1.9132E-002
 Clear Sky Daylight Factors,07/21,PERIMETER_TOP_ZN_2 ZN,PERIMETER_TOP_ZN_2_WALL_EAST_WINDOW,4.3057E-002,2.4620E-002
 Clear Turbid Sky Daylight Factors,07/21,PERIMETER_TOP_ZN_2 ZN,PERIMETER_TOP_ZN_2_WALL_EAST_WINDOW,3.9125E-002,2.1975E-002
 Intermediate Sky Daylight Factors,07/21,PERIMETER_TOP_ZN_2 ZN,PERIMETER_TOP_ZN_2_WALL_EAST_WINDOW,2.5546E-002,1.3835E-002
 Overcast Sky Daylight Factors,07/21,PERIMETER_TOP_ZN_2 ZN,PERIMETER_TOP_ZN_2_WALL_EAST_WINDOW,3.9595E-002,1.9411E-002
 Clear Sky Daylight Factors,07/21,PERIMETER_TOP_ZN_3 ZN,PERIMETER_TOP_ZN_3_WALL_NORTH_WINDOW,3.4717E-002,2.0998E-002
 Clear Turbid Sky Daylight Factors,07/21,PERIMETER_TOP_ZN_3 ZN,PERIMETER_TOP_ZN_3_WALL_NORTH_WINDOW,2.9940E-002,1.8035E-002
 Intermediate Sky Daylight Factors,07/21,PERIMETER_TOP_ZN_3 ZN,PERIMETER_TOP_ZN_3_WALL_NORTH_WINDOW,1.8541E-002,1.0798E-002
 Overcast Sky Daylight Factors,07/21,PERIMETER_TOP_ZN_3 ZN,PERIMETER_TOP_ZN_3_WALL_NORTH_WINDOW,3.9186E-002,1.9132E-002
 Clear Sky Daylight Factors,07/21,PERIMETER_TOP_ZN_4 ZN,PERIMETER_TOP_ZN_4_WALL_WEST_WINDOW,3.6143E-002,2.1715E-002
 Clear Turbid Sky Daylight Factors,07/21,PERIMETER_TOP_ZN_4 ZN,PERIMETER_TOP_ZN_4_WALL_WEST_WINDOW,3.1427E-002,1.8768E-002
 Intermediate Sky Daylight Factors,07/21,PERIMETER_TOP_ZN_4 ZN,PERIMETER_TOP_ZN_4_WALL_WEST_WINDOW,1.9749E-002,1.1394E-002
 Overcast Sky Daylight Factors,07/21,PERIMETER_TOP_ZN_4 ZN,PERIMETER_TOP_ZN_4_WALL_WEST_WINDOW,3.9595E-002,1.9411E-002
! <Zone Sizing Information>, Zone Name, Load Type, Calc Des Load {W}, User Des Load {W}, Calc Des Air Flow Rate {m3/s}, User Des Air Flow Rate {m3/s}, Design Day Name, Date/Time of Peak, Temperature at Peak {C}, Humidity Ratio at Peak {kgWater/kgDryAir}, Floor Area {m2}, # Occupants, Calc Outdoor Air Flow Rate {m3/s}, Calc DOAS Heat Addition Rate {W}
 Zone Sizing Information, CORE_BOTTOM ZN, Cooling, 39601.38173, 39601.38173, 2.85731, 2.85731, HOUSTON BUSH INTERCONTINENTAL ANN CLG .4% CONDNS DB=>MWB, 7/21 08:00:00, 28.52600, 1.51947E-002, 983.53657, 52.93350, 0.42469, -1292.12545
 Zone Sizing Information, CORE_BOTTOM ZN, Heating, 8703.55953, 8703.55953, 0.36745, 0.42469, HOUSTON BUSH INTERCONTINENTAL ANN HTG 99.6% CONDNS DB, 1/21 08:00:00, -1.60000, 3.31476E-003, 983.53657, 52.93350, 0.42469, -2346.64853
 Zone Sizing Information, CORE_MID ZN, Cooling, 27978.29955, 27978.29955, 2.01626, 2.01626, HOUSTON BUSH INTERCONTINENTAL ANN CLG .4% CONDNS DB=>MWB, 7/21 08:00:00, 28.52600, 1.51947E-002, 983.53657, 52.93350, 0.42469, -1291.45306
 Zone Sizing Information, CORE_MID ZN, Heating, 14593.45151, 14593.45151, 0.61953, 0.61953, HOUSTON BUSH INTERCONTINENTAL ANN HTG 99.6% CONDNS DB, 1/21 08:00:00, -1.60000, 3.31476E-003, 983.53657, 52.93350, 0.42469, -2322.48203
 Zone Sizing Information, CORE_TOP ZN, Cooling, 29083.80264, 29083.80264, 2.11627, 2.11627, HOUSTON BUSH INTERCONTINENTAL ANN CLG .4% CONDNS DB=>MWB, 7/21 15:00:00, 36.00000, 1.51947E-002, 983.53657, 52.93350, 0.42469, -1263.91406
 Zone Sizing Information, CORE_TOP ZN, Heating, 23256.41658, 23256.41658, 0.99102, 0.99102, HOUSTON BUSH INTERCONTINENTAL ANN HTG 99.6% CONDNS DB, 1/21 08:00:00, -1.60000, 3.31476E-003, 983.53657, 52.93350, 0.42469, -2317.04272
 Zone Sizing Information, PERIMETER_BOT_ZN_1 ZN, Cooling, 7739.79368, 7739.79368, 0.56318, 0.56318, HOUSTON BUSH INTERCONTINENTAL ANN CLG .4% CONDNS DB=>MWB, 7/21 13:40:00, 35.83167, 1.51947E-002, 207.33814, 11.15885, 8.95286E-002, -266.44882
 Zone Sizing Information, PERIMETER_BOT_ZN_1 ZN, Heating, 6647.40062, 6647.40062, 0.28374, 0.28374, HOUSTON BUSH INTERCONTINENTAL ANN HTG 99.6% CONDNS DB, 1/21 08:00:00, -1.60000, 3.31476E-003, 207.33814, 11.15885, 8.95286E-002, -487.98628
 Zone Sizing Information, PERIMETER_BOT_ZN_2 ZN, Cooling, 8516.74992, 8516.74992, 0.61971, 0.61971, HOUSTON BUSH INTERCONTINENTAL ANN CLG .4% CONDNS DB=>MWB, 7/21 09:30:00, 31.30350, 1.51947E-002, 131.26219, 7.06447, 5.66790E-002, -168.68730
 Zone Sizing Information, PERIMETER_BOT_ZN_2 ZN, Heating, 4451.70759, 4451.70759, 0.19006, 0.19006, HOUSTON BUSH INTERCONTINENTAL ANN HTG 99.6% CONDNS DB, 1/21 08:00:00, -1.60000, 3.31476E-003, 131.26219, 7.06447, 5.66790E-002, -308.86604
 Zone Sizing Information, PERIMETER_BOT_ZN_3 ZN, Cooling, 6733.20459, 6733.20459, 0.48993, 0.48993, HOUSTON BUSH INTERCONTINENTAL ANN CLG .4% CONDNS DB=>MWB, 7/21 14:50:00, 36.00000, 1.51947E-002, 207.33814, 11.15885, 8.95286E-002, -266.45017
 Zone Sizing Information, PERIMETER_BOT_ZN_3 ZN, Heating, 6605.58857, 6605.58857, 0.28195, 0.28195, HOUSTON BUSH INTERCONTINENTAL ANN HTG 99.6% CONDNS DB, 1/21 08:00:00, -1.60000, 3.31476E-003, 207.33814, 11.15885, 8.95286E-002, -487.99916
 Zone Sizing Information, PERIMETER_BOT_ZN_4 ZN, Cooling, 9066.46620, 9066.46620, 0.65971, 0.65971, HOUSTON BUSH INTERCONTINENTAL ANN CLG .4% CONDNS DB=>MWB, 7/21 17:00:00, 34.58600, 1.51947E-002, 131.25358, 7.06401, 5.66753E-002, -168.67679
 Zone Sizing Information, PERIMETER_BOT_ZN_4 ZN, Heating, 4451.62792, 4451.62792, 0.19005, 0.19005, HOUSTON BUSH INTERCONTINENTAL ANN HTG 99.6% CONDNS DB, 1/21 08:00:00, -1.60000, 3.31476E-003, 131.25358, 7.06401, 5.66753E-002, -308.84572
 Zone Sizing Information, PERIMETER_MID_ZN_1 ZN, Cooling, 8956.88374, 8956.88374, 0.65174, 0.65174, HOUSTON BUSH INTERCONTINENTAL ANN CLG .4% CONDNS DB=>MWB, 7/21 13:40:00, 35.83167, 1.51947E-002, 207.33814, 11.15885, 8.95286E-002, -266.44751
 Zone Sizing Information, PERIMETER_MID_ZN_1 ZN, Heating, 8068.85871, 8068.85871, 0.34467, 0.34467, HOUSTON BUSH INTERCONTINENTAL ANN HTG 99.6% CONDNS DB, 1/21 08:00:00, -1.60000, 3.31476E-003, 207.33814, 11.15885, 8.95286E-002, -487.85288
 Zone Sizing Information, PERIMETER_MID_ZN_2 ZN, Cooling, 9313.93847, 9313.93847, 0.67772, 0.67772, HOUSTON BUSH INTERCONTINENTAL ANN CLG .4% CONDNS DB=>MWB, 7/21 09:30:00, 31.30350, 1.51947E-002, 131.26219, 7.06447, 5.66790E-002, -168.68614
 Zone Sizing Information, PERIMETER_MID_ZN_2 ZN, Heating, 5360.39895, 5360.39895, 0.22902, 0.22902, HOUSTON BUSH INTERCONTINENTAL ANN HTG 99.6% CONDNS DB, 1/21 08:00:00, -1.60000, 3.31476E-003, 131.26219, 7.06447, 5.66790E-002, -308.85177
 Zone Sizing Information, PERIMETER_MID_ZN_3 ZN, Cooling, 7974.25534, 7974.25534, 0.58024, 0.58024, HOUSTON BUSH INTERCONTINENTAL ANN CLG .4% CONDNS DB=>MWB, 7/21 14:50:00, 36.00000, 1.51947E-002, 207.33814, 11.15885, 8.95286E-002, -266.44821
 Zone Sizing Information, PERIMETER_MID_ZN_3 ZN, Heating, 8063.57385, 8063.57385, 0.34445, 0.34445, HOUSTON BUSH INTERCONTINENTAL ANN HTG 99.6% CONDNS DB, 1/21 08:00:00, -1.60000, 3.31476E-003, 207.33814, 11.15885, 8.95286E-002, -487.85281
 Zone Sizing Information, PERIMETER_MID_ZN_4 ZN, Cooling, 9827.74979, 9827.74979, 0.71510, 0.71510, HOUSTON BUSH INTERCONTINENTAL ANN CLG .4% CONDNS DB=>MWB, 7/21 17:00:00, 34.58600, 1.51947E-002, 131.25358, 7.06401, 5.66753E-002, -168.67545
 Zone Sizing Information, PERIMETER_MID_ZN_4 ZN, Heating, 5360.25957, 5360.25957, 0.22901, 0.22901, HOUSTON BUSH INTERCONTINENTAL ANN HTG 99.6% CONDNS DB, 1/21 08:00:00, -1.60000, 3.31476E-003, 131.25358, 7.06401, 5.66753E-002, -308.83151
 Zone Sizing Information, PERIMETER_TOP_ZN_1 ZN, Cooling, 9920.91670, 9920.91670, 0.72189, 0.72189, HOUSTON BUSH INTERCONTINENTAL ANN CLG .4% CONDNS DB=>MWB, 7/21 13:50:00, 35.91583, 1.51947E-002, 207.33814, 11.15885, 8.95286E-002, -266.44582
 Zone Sizing Information, PERIMETER_TOP_ZN_1 ZN, Heating, 9820.31402, 9820.31402, 0.41977, 0.41977, HOUSTON BUSH INTERCONTINENTAL ANN HTG 99.6% CONDNS DB, 1/21 08:00:00, -1.60000, 3.31476E-003, 207.33814, 11.15885, 8.95286E-002, -487.84959
 Zone Sizing Information, PERIMETER_TOP_ZN_2 ZN, Cooling, 9404.79163, 9404.79163, 0.68433, 0.68433, HOUSTON BUSH INTERCONTINENTAL ANN CLG .4% CONDNS DB=>MWB, 7/21 09:40:00, 31.58967, 1.51947E-002, 131.26219, 7.06447, 5.66790E-002, -168.68439
 Zone Sizing Information, PERIMETER_TOP_ZN_2 ZN, Heating, 6465.90734, 6465.90734, 0.27642, 0.27642, HOUSTON BUSH INTERCONTINENTAL ANN HTG 99.6% CONDNS DB, 1/21 08:00:00, -1.60000, 3.31476E-003, 131.26219, 7.06447, 5.66790E-002, -308.84803
 Zone Sizing Information, PERIMETER_TOP_ZN_3 ZN, Cooling, 9042.24671, 9042.24671, 0.65795, 0.65795, HOUSTON BUSH INTERCONTINENTAL ANN CLG .4% CONDNS DB=>MWB, 7/21 15:00:00, 36.00000, 1.51947E-002, 207.33814, 11.15885, 8.95286E-002, -266.44657
 Zone Sizing Information, PERIMETER_TOP_ZN_3 ZN, Heating, 9827.06435, 9827.06435, 0.42006, 0.42006, HOUSTON BUSH INTERCONTINENTAL ANN HTG 99.6% CONDNS DB, 1/21 08:00:00, -1.60000, 3.31476E-003, 207.33814, 11.15885, 8.95286E-002, -487.84929
 Zone Sizing Information, PERIMETER_TOP_ZN_4 ZN, Cooling, 10459.90272, 10459.90272, 0.76110, 0.76110, HOUSTON BUSH INTERCONTINENTAL ANN CLG .4% CONDNS DB=>MWB, 7/21 17:00:00, 34.58600, 1.51947E-002, 131.25358, 7.06401, 5.66753E-002, -168.67531
 Zone Sizing Information, PERIMETER_TOP_ZN_4 ZN, Heating, 6465.69831, 6465.69831, 0.27641, 0.27641, HOUSTON BUSH INTERCONTINENTAL ANN HTG 99.6% CONDNS DB, 1/21 08:00:00, -1.60000, 3.31476E-003, 131.25358, 7.06401, 5.66753E-002, -308.82777
! <System Sizing Information>, System Name, Load Type, Peak Load Kind, User Design Capacity, Calc Des Air Flow Rate [m3/s], User Des Air Flow Rate [m3/s], Design Day Name, Date/Time of Peak
 System Sizing Information, 15 ZONE DOAS, Cooling, Sensible, 53042.86, 13.12657, 2.15131, HOUSTON BUSH INTERCONTINENTAL ANN CLG .4% CONDNS DB=>MWB, 7/21 00:00:00
 System Sizing Information, 15 ZONE DOAS, Heating, Sensible, 58923.70, 5.52087, 2.15131, HOUSTON BUSH INTERCONTINENTAL ANN HTG 99.6% CONDNS DB, 1/21 08:00:00
! <Component Sizing Information>, Component Type, Component Name, Input Field Description, Value
 Component Sizing Information, AirTerminal:SingleDuct:ConstantVolume:NoReheat, CORE_BOTTOM ZN AIR TERMINAL, Design Size Maximum Air Flow Rate [m3/s], 0.42469
 Component Sizing Information, ZoneHVAC:FourPipeFanCoil, CORE_BOTTOM ZN FCU, Design Size Maximum Supply Air Flow Rate [m3/s], 2.85731
 Component Sizing Information, Fan:OnOff, CORE_BOTTOM ZN FAN COIL FAN, Design Size Maximum Flow Rate [m3/s], 2.85731
 Component Sizing Information, ZoneHVAC:FourPipeFanCoil, CORE_BOTTOM ZN FCU, Design Size Maximum Hot Water Flow [m3/s], 2.16039E-004
 Component Sizing Information, ZoneHVAC:FourPipeFanCoil, CORE_BOTTOM ZN FCU, Design Size Maximum Cold Water Flow [m3/s], 2.20915E-003
 Component Sizing Information, Coil:Cooling:Water, CORE_BOTTOM ZN FCU COOLING COIL, Design Size Design Water Flow Rate [m3/s], 2.20915E-003
 Component Sizing Information, Coil:Cooling:Water, CORE_BOTTOM ZN FCU COOLING COIL, User-Specified Design Air Flow Rate [m3/s], 2.85731
 Component Sizing Information, Coil:Cooling:Water, CORE_BOTTOM ZN FCU COOLING COIL, Design Size Design Inlet Air Humidity Ratio, 9.40809E-003
 Component Sizing Information, Coil:Cooling:Water, CORE_BOTTOM ZN FCU COOLING COIL, Design Size Design Inlet Air Temperature [C], 25.37683
 Component Sizing Information, Coil:Cooling:Water, CORE_BOTTOM ZN FCU COOLING COIL, Design Size Design Inlet Water Temperature [C], 6.66667
 Component Sizing Information, Coil:Cooling:Water, CORE_BOTTOM ZN FCU COOLING COIL, Design Size Design Outlet Air Temperature [C], 12.77778
 Component Sizing Information, Coil:Cooling:Water, CORE_BOTTOM ZN FCU COOLING COIL, Design Size Design Outlet Air Humidity Ratio, 8.50000E-003
! <Water Cooling Coil Capacity Information>,Component Type,Name,Nominal Total Capacity {W},Nominal Sensible Capacity {W},Nominal Latent Capacity {W},Nominal Sensible Heat Ratio, Nominal Coil UA Value {W/C}, Nominal Coil Surface Area {m2}
Water Cooling Coil Capacity Information,Coil:Cooling:Water,CORE_BOTTOM ZN FCU COOLING COIL,61857.03,44472.44,17384.59,0.72,5867.55,59.51
 Component Sizing Information, Coil:Heating:Water, CORE_BOTTOM ZN FCU HEATING COIL, Design Size Rated Capacity [W], 9877.04644
 Component Sizing Information, Coil:Heating:Water, CORE_BOTTOM ZN FCU HEATING COIL, Design Size Maximum Water Flow Rate [m3/s], 2.16039E-004
 Component Sizing Information, Coil:Heating:Water, CORE_BOTTOM ZN FCU HEATING COIL, Design Size U-Factor Times Area Value [W/K], 906.91949
! <Water Heating Coil Capacity Information>,Component Type,Name,Nominal Total Capacity {W}
Water Heating Coil Capacity Information,Coil:Heating:Water,CORE_BOTTOM ZN FCU HEATING COIL,23350.92
 Component Sizing Information, AirTerminal:SingleDuct:ConstantVolume:NoReheat, CORE_MID ZN AIR TERMINAL, Design Size Maximum Air Flow Rate [m3/s], 0.42469
 Component Sizing Information, ZoneHVAC:FourPipeFanCoil, CORE_MID ZN FCU, Design Size Maximum Supply Air Flow Rate [m3/s], 2.01626
 Component Sizing Information, Fan:OnOff, CORE_MID ZN FAN COIL FAN, Design Size Maximum Flow Rate [m3/s], 2.01626
 Component Sizing Information, ZoneHVAC:FourPipeFanCoil, CORE_MID ZN FCU, Design Size Maximum Hot Water Flow [m3/s], 3.15167E-004
 Component Sizing Information, ZoneHVAC:FourPipeFanCoil, CORE_MID ZN FCU, Design Size Maximum Cold Water Flow [m3/s], 1.64844E-003
 Component Sizing Information, Coil:Cooling:Water, CORE_MID ZN FCU COOLING COIL, Design Size Design Water Flow Rate [m3/s], 1.64844E-003
 Component Sizing Information, Coil:Cooling:Water, CORE_MID ZN FCU COOLING COIL, User-Specified Design Air Flow Rate [m3/s], 2.01626
 Component Sizing Information, Coil:Cooling:Water, CORE_MID ZN FCU COOLING COIL, Design Size Design Inlet Air Humidity Ratio, 9.75050E-003
 Component Sizing Information, Coil:Cooling:Water, CORE_MID ZN FCU COOLING COIL, Design Size Design Inlet Air Temperature [C], 25.37602
 Component Sizing Information, Coil:Cooling:Water, CORE_MID ZN FCU COOLING COIL, Design Size Design Inlet Water Temperature [C], 6.66667
 Component Sizing Information, Coil:Cooling:Water, CORE_MID ZN FCU COOLING COIL, Design Size Design Outlet Air Temperature [C], 12.77778
 Component Sizing Information, Coil:Cooling:Water, CORE_MID ZN FCU COOLING COIL, Design Size Design Outlet Air Humidity Ratio, 8.50000E-003
Water Cooling Coil Capacity Information,Coil:Cooling:Water,CORE_MID ZN FCU COOLING COIL,44974.45,32039.97,12934.48,0.71,4274.63,43.36
 Component Sizing Information, Coil:Heating:Water, CORE_MID ZN FCU HEATING COIL, Design Size Rated Capacity [W], 14409.03770
 Component Sizing Information, Coil:Heating:Water, CORE_MID ZN FCU HEATING COIL, Design Size Maximum Water Flow Rate [m3/s], 3.15167E-004
 Component Sizing Information, Coil:Heating:Water, CORE_MID ZN FCU HEATING COIL, Design Size U-Factor Times Area Value [W/K], 1320.91838
Water Heating Coil Capacity Information,Coil:Heating:Water,CORE_MID ZN FCU HEATING COIL,34044.05
 Component Sizing Information, AirTerminal:SingleDuct:ConstantVolume:NoReheat, CORE_TOP ZN AIR TERMINAL, Design Size Maximum Air Flow Rate [m3/s], 0.42469
 Component Sizing Information, ZoneHVAC:FourPipeFanCoil, CORE_TOP ZN FCU, Design Size Maximum Supply Air Flow Rate [m3/s], 2.11627
 Component Sizing Information, Fan:OnOff, CORE_TOP ZN FAN COIL FAN, Design Size Maximum Flow Rate [m3/s], 2.11627
 Component Sizing Information, ZoneHVAC:FourPipeFanCoil, CORE_TOP ZN FCU, Design Size Maximum Hot Water Flow [m3/s], 5.04156E-004
 Component Sizing Information, ZoneHVAC:FourPipeFanCoil, CORE_TOP ZN FCU, Design Size Maximum Cold Water Flow [m3/s], 1.70834E-003
 Component Sizing Information, Coil:Cooling:Water, CORE_TOP ZN FCU COOLING COIL, Design Size Design Water Flow Rate [m3/s], 1.70834E-003
 Component Sizing Information, Coil:Cooling:Water, CORE_TOP ZN FCU COOLING COIL, User-Specified Design Air Flow Rate [m3/s], 2.11627
 Component Sizing Information, Coil:Cooling:Water, CORE_TOP ZN FCU COOLING COIL, Design Size Design Inlet Air Humidity Ratio, 9.67081E-003
 Component Sizing Information, Coil:Cooling:Water, CORE_TOP ZN FCU COOLING COIL, Design Size Design Inlet Air Temperature [C], 25.37629
 Component Sizing Information, Coil:Cooling:Water, CORE_TOP ZN FCU COOLING COIL, Design Size Design Inlet Water Temperature [C], 6.66667
 Component Sizing Information, Coil:Cooling:Water, CORE_TOP ZN FCU COOLING COIL, Design Size Design Outlet Air Temperature [C], 12.77778
 Component Sizing Information, Coil:Cooling:Water, CORE_TOP ZN FCU COOLING COIL, Design Size Design Outlet Air Humidity Ratio, 8.50000E-003
Water Cooling Coil Capacity Information,Coil:Cooling:Water,CORE_TOP ZN FCU COOLING COIL,46888.31,33472.01,13416.29,0.71,4454.20,45.18
 Component Sizing Information, Coil:Heating:Water, CORE_TOP ZN FCU HEATING COIL, Design Size Rated Capacity [W], 23049.41542
 Component Sizing Information, Coil:Heating:Water, CORE_TOP ZN FCU HEATING COIL, Design Size Maximum Water Flow Rate [m3/s], 5.04156E-004
 Component Sizing Information, Coil:Heating:Water, CORE_TOP ZN FCU HEATING COIL, Design Size U-Factor Times Area Value [W/K], 2109.66683
Water Heating Coil Capacity Information,Coil:Heating:Water,CORE_TOP ZN FCU HEATING COIL,54426.24
 Component Sizing Information, AirTerminal:SingleDuct:ConstantVolume:NoReheat, PERIMETER_BOT_ZN_1 ZN AIR TERMINAL, Design Size Maximum Air Flow Rate [m3/s], 8.95286E-002
 Component Sizing Information, ZoneHVAC:FourPipeFanCoil, PERIMETER_BOT_ZN_1 ZN FCU, Design Size Maximum Supply Air Flow Rate [m3/s], 0.56318
 Component Sizing Information, Fan:OnOff, PERIMETER_BOT_ZN_1 ZN FAN COIL FAN, Design Size Maximum Flow Rate [m3/s], 0.56318
 Component Sizing Information, ZoneHVAC:FourPipeFanCoil, PERIMETER_BOT_ZN_1 ZN FCU, Design Size Maximum Hot Water Flow [m3/s], 1.44346E-004
 Component Sizing Information, ZoneHVAC:FourPipeFanCoil, PERIMETER_BOT_ZN_1 ZN FCU, Design Size Maximum Cold Water Flow [m3/s], 4.41050E-004
 Component Sizing Information, Coil:Cooling:Water, PERIMETER_BOT_ZN_1 ZN FCU COOLING COIL, Design Size Design Water Flow Rate [m3/s], 4.41050E-004
 Component Sizing Information, Coil:Cooling:Water, PERIMETER_BOT_ZN_1 ZN FCU COOLING COIL, User-Specified Design Air Flow Rate [m3/s], 0.56318
 Component Sizing Information, Coil:Cooling:Water, PERIMETER_BOT_ZN_1 ZN FCU COOLING COIL, Design Size Design Inlet Air Humidity Ratio, 9.48499E-003
 Component Sizing Information, Coil:Cooling:Water, PERIMETER_BOT_ZN_1 ZN FCU COOLING COIL, Design Size Design Inlet Air Temperature [C], 25.37683
 Component Sizing Information, Coil:Cooling:Water, PERIMETER_BOT_ZN_1 ZN FCU COOLING COIL, Design Size Design Inlet Water Temperature [C], 6.66667
 Component Sizing Information, Coil:Cooling:Water, PERIMETER_BOT_ZN_1 ZN FCU COOLING COIL, Design Size Design Outlet Air Temperature [C], 12.77778
 Component Sizing Information, Coil:Cooling:Water, PERIMETER_BOT_ZN_1 ZN FCU COOLING COIL, Design Size Design Outlet Air Humidity Ratio, 8.50000E-003
Water Cooling Coil Capacity Information,Coil:Cooling:Water,PERIMETER_BOT_ZN_1 ZN FCU COOLING COIL,12277.05,8807.82,3469.23,0.72,1165.01,11.82
 Component Sizing Information, Coil:Heating:Water, PERIMETER_BOT_ZN_1 ZN FCU HEATING COIL, Design Size Rated Capacity [W], 6599.30983
 Component Sizing Information, Coil:Heating:Water, PERIMETER_BOT_ZN_1 ZN FCU HEATING COIL, Design Size Maximum Water Flow Rate [m3/s], 1.44346E-004
 Component Sizing Information, Coil:Heating:Water, PERIMETER_BOT_ZN_1 ZN FCU HEATING COIL, Design Size U-Factor Times Area Value [W/K], 603.57218
Water Heating Coil Capacity Information,Coil:Heating:Water,PERIMETER_BOT_ZN_1 ZN FCU HEATING COIL,15578.57
 Component Sizing Information, AirTerminal:SingleDuct:ConstantVolume:NoReheat, PERIMETER_BOT_ZN_2 ZN AIR TERMINAL, Design Size Maximum Air Flow Rate [m3/s], 5.66790E-002
 Component Sizing Information, ZoneHVAC:FourPipeFanCoil, PERIMETER_BOT_ZN_2 ZN FCU, Design Size Maximum Supply Air Flow Rate [m3/s], 0.61971
 Component Sizing Information, Fan:OnOff, PERIMETER_BOT_ZN_2 ZN FAN COIL FAN, Design Size Maximum Flow Rate [m3/s], 0.61971
 Component Sizing Information, ZoneHVAC:FourPipeFanCoil, PERIMETER_BOT_ZN_2 ZN FCU, Design Size Maximum Hot Water Flow [m3/s], 9.66860E-005
 Component Sizing Information, ZoneHVAC:FourPipeFanCoil, PERIMETER_BOT_ZN_2 ZN FCU, Design Size Maximum Cold Water Flow [m3/s], 4.54189E-004
 Component Sizing Information, Coil:Cooling:Water, PERIMETER_BOT_ZN_2 ZN FCU COOLING COIL, Design Size Design Water Flow Rate [m3/s], 4.54189E-004
 Component Sizing Information, Coil:Cooling:Water, PERIMETER_BOT_ZN_2 ZN FCU COOLING COIL, User-Specified Design Air Flow Rate [m3/s], 0.61971
 Component Sizing Information, Coil:Cooling:Water, PERIMETER_BOT_ZN_2 ZN FCU COOLING COIL, Design Size Design Inlet Air Humidity Ratio, 9.09765E-003
 Component Sizing Information, Coil:Cooling:Water, PERIMETER_BOT_ZN_2 ZN FCU COOLING COIL, Design Size Design Inlet Air Temperature [C], 25.37788
 Component Sizing Information, Coil:Cooling:Water, PERIMETER_BOT_ZN_2 ZN FCU COOLING COIL, Design Size Design Inlet Water Temperature [C], 6.66667
 Component Sizing Information, Coil:Cooling:Water, PERIMETER_BOT_ZN_2 ZN FCU COOLING COIL, Design Size Design Outlet Air Temperature [C], 12.77778
 Component Sizing Information, Coil:Cooling:Water, PERIMETER_BOT_ZN_2 ZN FCU COOLING COIL, Design Size Design Outlet Air Humidity Ratio, 8.50000E-003
Water Cooling Coil Capacity Information,Coil:Cooling:Water,PERIMETER_BOT_ZN_2 ZN FCU COOLING COIL,13026.86,9451.48,3575.38,0.73,1234.26,12.52
 Component Sizing Information, Coil:Heating:Water, PERIMETER_BOT_ZN_2 ZN FCU HEATING COIL, Design Size Rated Capacity [W], 4420.36591
 Component Sizing Information, Coil:Heating:Water, PERIMETER_BOT_ZN_2 ZN FCU HEATING COIL, Design Size Maximum Water Flow Rate [m3/s], 9.66860E-005
 Component Sizing Information, Coil:Heating:Water, PERIMETER_BOT_ZN_2 ZN FCU HEATING COIL, Design Size U-Factor Times Area Value [W/K], 404.23183
Water Heating Coil Capacity Information,Coil:Heating:Water,PERIMETER_BOT_ZN_2 ZN FCU HEATING COIL,10434.36
 Component Sizing Information, AirTerminal:SingleDuct:ConstantVolume:NoReheat, PERIMETER_BOT_ZN_3 ZN AIR TERMINAL, Design Size Maximum Air Flow Rate [m3/s], 8.95286E-002
 Component Sizing Information, ZoneHVAC:FourPipeFanCoil, PERIMETER_BOT_ZN_3 ZN FCU, Design Size Maximum Supply Air Flow Rate [m3/s], 0.48993
 Component Sizing Information, Fan:OnOff, PERIMETER_BOT_ZN_3 ZN FAN COIL FAN, Design Size Maximum Flow Rate [m3/s], 0.48993
 Component Sizing Information, ZoneHVAC:FourPipeFanCoil, PERIMETER_BOT_ZN_3 ZN FCU, Design Size Maximum Hot Water Flow [m3/s], 1.43434E-004
 Component Sizing Information, ZoneHVAC:FourPipeFanCoil, PERIMETER_BOT_ZN_3 ZN FCU, Design Size Maximum Cold Water Flow [m3/s], 3.91793E-004
 Component Sizing Information, Coil:Cooling:Water, PERIMETER_BOT_ZN_3 ZN FCU COOLING COIL, Design Size Design Water Flow Rate [m3/s], 3.91793E-004
 Component Sizing Information, Coil:Cooling:Water, PERIMETER_BOT_ZN_3 ZN FCU COOLING COIL, User-Specified Design Air Flow Rate [m3/s], 0.48993
 Component Sizing Information, Coil:Cooling:Water, PERIMETER_BOT_ZN_3 ZN FCU COOLING COIL, Design Size Design Inlet Air Humidity Ratio, 9.61251E-003
 Component Sizing Information, Coil:Cooling:Water, PERIMETER_BOT_ZN_3 ZN FCU COOLING COIL, Design Size Design Inlet Air Temperature [C], 25.37651
 Component Sizing Information, Coil:Cooling:Water, PERIMETER_BOT_ZN_3 ZN FCU COOLING COIL, Design Size Design Inlet Water Temperature [C], 6.66667
 Component Sizing Information, Coil:Cooling:Water, PERIMETER_BOT_ZN_3 ZN FCU COOLING COIL, Design Size Design Outlet Air Temperature [C], 12.77778
 Component Sizing Information, Coil:Cooling:Water, PERIMETER_BOT_ZN_3 ZN FCU COOLING COIL, Design Size Design Outlet Air Humidity Ratio, 8.50000E-003
Water Cooling Coil Capacity Information,Coil:Cooling:Water,PERIMETER_BOT_ZN_3 ZN FCU COOLING COIL,10800.83,7722.16,3078.67,0.71,1025.66,10.40
 Component Sizing Information, Coil:Heating:Water, PERIMETER_BOT_ZN_3 ZN FCU HEATING COIL, Design Size Rated Capacity [W], 6557.65020
 Component Sizing Information, Coil:Heating:Water, PERIMETER_BOT_ZN_3 ZN FCU HEATING COIL, Design Size Maximum Water Flow Rate [m3/s], 1.43434E-004
 Component Sizing Information, Coil:Heating:Water, PERIMETER_BOT_ZN_3 ZN FCU HEATING COIL, Design Size U-Factor Times Area Value [W/K], 599.77128
Water Heating Coil Capacity Information,Coil:Heating:Water,PERIMETER_BOT_ZN_3 ZN FCU HEATING COIL,15480.31
 Component Sizing Information, AirTerminal:SingleDuct:ConstantVolume:NoReheat, PERIMETER_BOT_ZN_4 ZN AIR TERMINAL, Design Size Maximum Air Flow Rate [m3/s], 5.66753E-002
 Component Sizing Information, ZoneHVAC:FourPipeFanCoil, PERIMETER_BOT_ZN_4 ZN FCU, Design Size Maximum Supply Air Flow Rate [m3/s], 0.65971
 Component Sizing Information, Fan:OnOff, PERIMETER_BOT_ZN_4 ZN FAN COIL FAN, Design Size Maximum Flow Rate [m3/s], 0.65971
 Component Sizing Information, ZoneHVAC:FourPipeFanCoil, PERIMETER_BOT_ZN_4 ZN FCU, Design Size Maximum Hot Water Flow [m3/s], 9.66842E-005
 Component Sizing Information, ZoneHVAC:FourPipeFanCoil, PERIMETER_BOT_ZN_4 ZN FCU, Design Size Maximum Cold Water Flow [m3/s], 4.80574E-004
 Component Sizing Information, Coil:Cooling:Water, PERIMETER_BOT_ZN_4 ZN FCU COOLING COIL, Design Size Design Water Flow Rate [m3/s], 4.80574E-004
 Component Sizing Information, Coil:Cooling:Water, PERIMETER_BOT_ZN_4 ZN FCU COOLING COIL, User-Specified Design Air Flow Rate [m3/s], 0.65971
 Component Sizing Information, Coil:Cooling:Water, PERIMETER_BOT_ZN_4 ZN FCU COOLING COIL, Design Size Design Inlet Air Humidity Ratio, 9.06340E-003
 Component Sizing Information, Coil:Cooling:Water, PERIMETER_BOT_ZN_4 ZN FCU COOLING COIL, Design Size Design Inlet Air Temperature [C], 25.37798
 Component Sizing Information, Coil:Cooling:Water, PERIMETER_BOT_ZN_4 ZN FCU COOLING COIL, Design Size Design Inlet Water Temperature [C], 6.66667
 Component Sizing Information, Coil:Cooling:Water, PERIMETER_BOT_ZN_4 ZN FCU COOLING COIL, Design Size Design Outlet Air Temperature [C], 12.77778
 Component Sizing Information, Coil:Cooling:Water, PERIMETER_BOT_ZN_4 ZN FCU COOLING COIL, Design Size Design Outlet Air Humidity Ratio, 8.50000E-003
Water Cooling Coil Capacity Information,Coil:Cooling:Water,PERIMETER_BOT_ZN_4 ZN FCU COOLING COIL,13820.66,10038.03,3782.63,0.73,1309.35,13.28
 Component Sizing Information, Coil:Heating:Water, PERIMETER_BOT_ZN_4 ZN FCU HEATING COIL, Design Size Rated Capacity [W], 4420.28748
 Component Sizing Information, Coil:Heating:Water, PERIMETER_BOT_ZN_4 ZN FCU HEATING COIL, Design Size Maximum Water Flow Rate [m3/s], 9.66842E-005
 Component Sizing Information, Coil:Heating:Water, PERIMETER_BOT_ZN_4 ZN FCU HEATING COIL, Design Size U-Factor Times Area Value [W/K], 404.22462
Water Heating Coil Capacity Information,Coil:Heating:Water,PERIMETER_BOT_ZN_4 ZN FCU HEATING COIL,10434.18
 Component Sizing Information, AirTerminal:SingleDuct:ConstantVolume:NoReheat, PERIMETER_MID_ZN_1 ZN AIR TERMINAL, Design Size Maximum Air Flow Rate [m3/s], 8.95286E-002
 Component Sizing Information, ZoneHVAC:FourPipeFanCoil, PERIMETER_MID_ZN_1 ZN FCU, Design Size Maximum Supply Air Flow Rate [m3/s], 0.65174
 Component Sizing Information, Fan:OnOff, PERIMETER_MID_ZN_1 ZN FAN COIL FAN, Design Size Maximum Flow Rate [m3/s], 0.65174
 Component Sizing Information, ZoneHVAC:FourPipeFanCoil, PERIMETER_MID_ZN_1 ZN FCU, Design Size Maximum Hot Water Flow [m3/s], 1.75342E-004
 Component Sizing Information, ZoneHVAC:FourPipeFanCoil, PERIMETER_MID_ZN_1 ZN FCU, Design Size Maximum Cold Water Flow [m3/s], 5.01549E-004
 Component Sizing Information, Coil:Cooling:Water, PERIMETER_MID_ZN_1 ZN FCU COOLING COIL, Design Size Design Water Flow Rate [m3/s], 5.01549E-004
 Component Sizing Information, Coil:Cooling:Water, PERIMETER_MID_ZN_1 ZN FCU COOLING COIL, User-Specified Design Air Flow Rate [m3/s], 0.65174
 Component Sizing Information, Coil:Cooling:Water, PERIMETER_MID_ZN_1 ZN FCU COOLING COIL, Design Size Design Inlet Air Humidity Ratio, 9.38023E-003
 Component Sizing Information, Coil:Cooling:Water, PERIMETER_MID_ZN_1 ZN FCU COOLING COIL, Design Size Design Inlet Air Temperature [C], 25.37707
 Component Sizing Information, Coil:Cooling:Water, PERIMETER_MID_ZN_1 ZN FCU COOLING COIL, Design Size Design Inlet Water Temperature [C], 6.66667
 Component Sizing Information, Coil:Cooling:Water, PERIMETER_MID_ZN_1 ZN FCU COOLING COIL, Design Size Design Outlet Air Temperature [C], 12.77778
 Component Sizing Information, Coil:Cooling:Water, PERIMETER_MID_ZN_1 ZN FCU COOLING COIL, Design Size Design Outlet Air Humidity Ratio, 8.50000E-003
Water Cooling Coil Capacity Information,Coil:Cooling:Water,PERIMETER_MID_ZN_1 ZN FCU COOLING COIL,14073.50,10126.15,3947.36,0.72,1334.79,13.54
 Component Sizing Information, Coil:Heating:Water, PERIMETER_MID_ZN_1 ZN FCU HEATING COIL, Design Size Rated Capacity [W], 8016.40621
 Component Sizing Information, Coil:Heating:Water, PERIMETER_MID_ZN_1 ZN FCU HEATING COIL, Design Size Maximum Water Flow Rate [m3/s], 1.75342E-004
 Component Sizing Information, Coil:Heating:Water, PERIMETER_MID_ZN_1 ZN FCU HEATING COIL, Design Size U-Factor Times Area Value [W/K], 732.86889
Water Heating Coil Capacity Information,Coil:Heating:Water,PERIMETER_MID_ZN_1 ZN FCU HEATING COIL,18920.88
 Component Sizing Information, AirTerminal:SingleDuct:ConstantVolume:NoReheat, PERIMETER_MID_ZN_2 ZN AIR TERMINAL, Design Size Maximum Air Flow Rate [m3/s], 5.66790E-002
 Component Sizing Information, ZoneHVAC:FourPipeFanCoil, PERIMETER_MID_ZN_2 ZN FCU, Design Size Maximum Supply Air Flow Rate [m3/s], 0.67772
 Component Sizing Information, Fan:OnOff, PERIMETER_MID_ZN_2 ZN FAN COIL FAN, Design Size Maximum Flow Rate [m3/s], 0.67772
 Component Sizing Information, ZoneHVAC:FourPipeFanCoil, PERIMETER_MID_ZN_2 ZN FCU, Design Size Maximum Hot Water Flow [m3/s], 1.16506E-004
 Component Sizing Information, ZoneHVAC:FourPipeFanCoil, PERIMETER_MID_ZN_2 ZN FCU, Design Size Maximum Cold Water Flow [m3/s], 4.93456E-004
 Component Sizing Information, Coil:Cooling:Water, PERIMETER_MID_ZN_2 ZN FCU COOLING COIL, Design Size Design Water Flow Rate [m3/s], 4.93456E-004
 Component Sizing Information, Coil:Cooling:Water, PERIMETER_MID_ZN_2 ZN FCU COOLING COIL, User-Specified Design Air Flow Rate [m3/s], 0.67772
 Component Sizing Information, Coil:Cooling:Water, PERIMETER_MID_ZN_2 ZN FCU COOLING COIL, Design Size Design Inlet Air Humidity Ratio, 9.06073E-003
 Component Sizing Information, Coil:Cooling:Water, PERIMETER_MID_ZN_2 ZN FCU COOLING COIL, Design Size Design Inlet Air Temperature [C], 25.37795
 Component Sizing Information, Coil:Cooling:Water, PERIMETER_MID_ZN_2 ZN FCU COOLING COIL, Design Size Design Inlet Water Temperature [C], 6.66667
 Component Sizing Information, Coil:Cooling:Water, PERIMETER_MID_ZN_2 ZN FCU COOLING COIL, Design Size Design Outlet Air Temperature [C], 12.77778
 Component Sizing Information, Coil:Cooling:Water, PERIMETER_MID_ZN_2 ZN FCU COOLING COIL, Design Size Design Outlet Air Humidity Ratio, 8.50000E-003
Water Cooling Coil Capacity Information,Coil:Cooling:Water,PERIMETER_MID_ZN_2 ZN FCU COOLING COIL,14194.14,10310.15,3883.98,0.73,1344.73,13.64
 Component Sizing Information, Coil:Heating:Water, PERIMETER_MID_ZN_2 ZN FCU HEATING COIL, Design Size Rated Capacity [W], 5326.52513
 Component Sizing Information, Coil:Heating:Water, PERIMETER_MID_ZN_2 ZN FCU HEATING COIL, Design Size Maximum Water Flow Rate [m3/s], 1.16506E-004
 Component Sizing Information, Coil:Heating:Water, PERIMETER_MID_ZN_2 ZN FCU HEATING COIL, Design Size U-Factor Times Area Value [W/K], 486.91285
Water Heating Coil Capacity Information,Coil:Heating:Water,PERIMETER_MID_ZN_2 ZN FCU HEATING COIL,12571.63
 Component Sizing Information, AirTerminal:SingleDuct:ConstantVolume:NoReheat, PERIMETER_MID_ZN_3 ZN AIR TERMINAL, Design Size Maximum Air Flow Rate [m3/s], 8.95286E-002
 Component Sizing Information, ZoneHVAC:FourPipeFanCoil, PERIMETER_MID_ZN_3 ZN FCU, Design Size Maximum Supply Air Flow Rate [m3/s], 0.58024
 Component Sizing Information, Fan:OnOff, PERIMETER_MID_ZN_3 ZN FAN COIL FAN, Design Size Maximum Flow Rate [m3/s], 0.58024
 Component Sizing Information, ZoneHVAC:FourPipeFanCoil, PERIMETER_MID_ZN_3 ZN FCU, Design Size Maximum Hot Water Flow [m3/s], 1.75226E-004
 Component Sizing Information, ZoneHVAC:FourPipeFanCoil, PERIMETER_MID_ZN_3 ZN FCU, Design Size Maximum Cold Water Flow [m3/s], 4.53730E-004
 Component Sizing Information, Coil:Cooling:Water, PERIMETER_MID_ZN_3 ZN FCU COOLING COIL, Design Size Design Water Flow Rate [m3/s], 4.53730E-004
 Component Sizing Information, Coil:Cooling:Water, PERIMETER_MID_ZN_3 ZN FCU COOLING COIL, User-Specified Design Air Flow Rate [m3/s], 0.58024
 Component Sizing Information, Coil:Cooling:Water, PERIMETER_MID_ZN_3 ZN FCU COOLING COIL, Design Size Design Inlet Air Humidity Ratio, 9.47596E-003
 Component Sizing Information, Coil:Cooling:Water, PERIMETER_MID_ZN_3 ZN FCU COOLING COIL, Design Size Design Inlet Air Temperature [C], 25.37683
 Component Sizing Information, Coil:Cooling:Water, PERIMETER_MID_ZN_3 ZN FCU COOLING COIL, Design Size Design Inlet Water Temperature [C], 6.66667
 Component Sizing Information, Coil:Cooling:Water, PERIMETER_MID_ZN_3 ZN FCU COOLING COIL, Design Size Design Outlet Air Temperature [C], 12.77778
 Component Sizing Information, Coil:Cooling:Water, PERIMETER_MID_ZN_3 ZN FCU COOLING COIL, Design Size Design Outlet Air Humidity Ratio, 8.50000E-003
Water Cooling Coil Capacity Information,Coil:Cooling:Water,PERIMETER_MID_ZN_3 ZN FCU COOLING COIL,12638.74,9069.56,3569.19,0.72,1199.27,12.16
 Component Sizing Information, Coil:Heating:Water, PERIMETER_MID_ZN_3 ZN FCU HEATING COIL, Design Size Rated Capacity [W], 8011.14496
 Component Sizing Information, Coil:Heating:Water, PERIMETER_MID_ZN_3 ZN FCU HEATING COIL, Design Size Maximum Water Flow Rate [m3/s], 1.75226E-004
 Component Sizing Information, Coil:Heating:Water, PERIMETER_MID_ZN_3 ZN FCU HEATING COIL, Design Size U-Factor Times Area Value [W/K], 732.38877
Water Heating Coil Capacity Information,Coil:Heating:Water,PERIMETER_MID_ZN_3 ZN FCU HEATING COIL,18908.47
 Component Sizing Information, AirTerminal:SingleDuct:ConstantVolume:NoReheat, PERIMETER_MID_ZN_4 ZN AIR TERMINAL, Design Size Maximum Air Flow Rate [m3/s], 5.66753E-002
 Component Sizing Information, ZoneHVAC:FourPipeFanCoil, PERIMETER_MID_ZN_4 ZN FCU, Design Size Maximum Supply Air Flow Rate [m3/s], 0.71510
 Component Sizing Information, Fan:OnOff, PERIMETER_MID_ZN_4 ZN FAN COIL FAN, Design Size Maximum Flow Rate [m3/s], 0.71510
 Component Sizing Information, ZoneHVAC:FourPipeFanCoil, PERIMETER_MID_ZN_4 ZN FCU, Design Size Maximum Hot Water Flow [m3/s], 1.16503E-004
 Component Sizing Information, ZoneHVAC:FourPipeFanCoil, PERIMETER_MID_ZN_4 ZN FCU, Design Size Maximum Cold Water Flow [m3/s], 5.18081E-004
 Component Sizing Information, Coil:Cooling:Water, PERIMETER_MID_ZN_4 ZN FCU COOLING COIL, Design Size Design Water Flow Rate [m3/s], 5.18081E-004
 Component Sizing Information, Coil:Cooling:Water, PERIMETER_MID_ZN_4 ZN FCU COOLING COIL, User-Specified Design Air Flow Rate [m3/s], 0.71510
 Component Sizing Information, Coil:Cooling:Water, PERIMETER_MID_ZN_4 ZN FCU COOLING COIL, Design Size Design Inlet Air Humidity Ratio, 9.03273E-003
 Component Sizing Information, Coil:Cooling:Water, PERIMETER_MID_ZN_4 ZN FCU COOLING COIL, Design Size Design Inlet Air Temperature [C], 25.37802
 Component Sizing Information, Coil:Cooling:Water, PERIMETER_MID_ZN_4 ZN FCU COOLING COIL, Design Size Design Inlet Water Temperature [C], 6.66667
 Component Sizing Information, Coil:Cooling:Water, PERIMETER_MID_ZN_4 ZN FCU COOLING COIL, Design Size Design Outlet Air Temperature [C], 12.77778
 Component Sizing Information, Coil:Cooling:Water, PERIMETER_MID_ZN_4 ZN FCU COOLING COIL, Design Size Design Outlet Air Humidity Ratio, 8.50000E-003
Water Cooling Coil Capacity Information,Coil:Cooling:Water,PERIMETER_MID_ZN_4 ZN FCU COOLING COIL,14935.26,10857.97,4077.29,0.73,1414.85,14.35
 Component Sizing Information, Coil:Heating:Water, PERIMETER_MID_ZN_4 ZN FCU HEATING COIL, Design Size Rated Capacity [W], 5326.38741
 Component Sizing Information, Coil:Heating:Water, PERIMETER_MID_ZN_4 ZN FCU HEATING COIL, Design Size Maximum Water Flow Rate [m3/s], 1.16503E-004
 Component Sizing Information, Coil:Heating:Water, PERIMETER_MID_ZN_4 ZN FCU HEATING COIL, Design Size U-Factor Times Area Value [W/K], 486.90023
Water Heating Coil Capacity Information,Coil:Heating:Water,PERIMETER_MID_ZN_4 ZN FCU HEATING COIL,12571.30
 Component Sizing Information, AirTerminal:SingleDuct:ConstantVolume:NoReheat, PERIMETER_TOP_ZN_1 ZN AIR TERMINAL, Design Size Maximum Air Flow Rate [m3/s], 8.95286E-002
 Component Sizing Information, ZoneHVAC:FourPipeFanCoil, PERIMETER_TOP_ZN_1 ZN FCU, Design Size Maximum Supply Air Flow Rate [m3/s], 0.72189
 Component Sizing Information, Fan:OnOff, PERIMETER_TOP_ZN_1 ZN FAN COIL FAN, Design Size Maximum Flow Rate [m3/s], 0.72189
 Component Sizing Information, ZoneHVAC:FourPipeFanCoil, PERIMETER_TOP_ZN_1 ZN FCU, Design Size Maximum Hot Water Flow [m3/s], 2.13544E-004
 Component Sizing Information, ZoneHVAC:FourPipeFanCoil, PERIMETER_TOP_ZN_1 ZN FCU, Design Size Maximum Cold Water Flow [m3/s], 5.49011E-004
 Component Sizing Information, Coil:Cooling:Water, PERIMETER_TOP_ZN_1 ZN FCU COOLING COIL, Design Size Design Water Flow Rate [m3/s], 5.49011E-004
 Component Sizing Information, Coil:Cooling:Water, PERIMETER_TOP_ZN_1 ZN FCU COOLING COIL, User-Specified Design Air Flow Rate [m3/s], 0.72189
 Component Sizing Information, Coil:Cooling:Water, PERIMETER_TOP_ZN_1 ZN FCU COOLING COIL, Design Size Design Inlet Air Humidity Ratio, 9.31060E-003
 Component Sizing Information, Coil:Cooling:Water, PERIMETER_TOP_ZN_1 ZN FCU COOLING COIL, Design Size Design Inlet Air Temperature [C], 25.37723
 Component Sizing Information, Coil:Cooling:Water, PERIMETER_TOP_ZN_1 ZN FCU COOLING COIL, Design Size Design Inlet Water Temperature [C], 6.66667
 Component Sizing Information, Coil:Cooling:Water, PERIMETER_TOP_ZN_1 ZN FCU COOLING COIL, Design Size Design Outlet Air Temperature [C], 12.77778
 Component Sizing Information, Coil:Cooling:Water, PERIMETER_TOP_ZN_1 ZN FCU COOLING COIL, Design Size Design Outlet Air Humidity Ratio, 8.50000E-003
Water Cooling Coil Capacity Information,Coil:Cooling:Water,PERIMETER_TOP_ZN_1 ZN FCU COOLING COIL,15488.11,11166.17,4321.94,0.72,1468.51,14.89
 Component Sizing Information, Coil:Heating:Water, PERIMETER_TOP_ZN_1 ZN FCU HEATING COIL, Design Size Rated Capacity [W], 9762.95411
 Component Sizing Information, Coil:Heating:Water, PERIMETER_TOP_ZN_1 ZN FCU HEATING COIL, Design Size Maximum Water Flow Rate [m3/s], 2.13544E-004
 Component Sizing Information, Coil:Heating:Water, PERIMETER_TOP_ZN_1 ZN FCU HEATING COIL, Design Size U-Factor Times Area Value [W/K], 892.23402
Water Heating Coil Capacity Information,Coil:Heating:Water,PERIMETER_TOP_ZN_1 ZN FCU HEATING COIL,23040.34
 Component Sizing Information, AirTerminal:SingleDuct:ConstantVolume:NoReheat, PERIMETER_TOP_ZN_2 ZN AIR TERMINAL, Design Size Maximum Air Flow Rate [m3/s], 5.66790E-002
 Component Sizing Information, ZoneHVAC:FourPipeFanCoil, PERIMETER_TOP_ZN_2 ZN FCU, Design Size Maximum Supply Air Flow Rate [m3/s], 0.68433
 Component Sizing Information, Fan:OnOff, PERIMETER_TOP_ZN_2 ZN FAN COIL FAN, Design Size Maximum Flow Rate [m3/s], 0.68433
 Component Sizing Information, ZoneHVAC:FourPipeFanCoil, PERIMETER_TOP_ZN_2 ZN FCU, Design Size Maximum Hot Water Flow [m3/s], 1.40619E-004
 Component Sizing Information, ZoneHVAC:FourPipeFanCoil, PERIMETER_TOP_ZN_2 ZN FCU, Design Size Maximum Cold Water Flow [m3/s], 4.98340E-004
 Component Sizing Information, Coil:Cooling:Water, PERIMETER_TOP_ZN_2 ZN FCU COOLING COIL, Design Size Design Water Flow Rate [m3/s], 4.98340E-004
 Component Sizing Information, Coil:Cooling:Water, PERIMETER_TOP_ZN_2 ZN FCU COOLING COIL, User-Specified Design Air Flow Rate [m3/s], 0.68433
 Component Sizing Information, Coil:Cooling:Water, PERIMETER_TOP_ZN_2 ZN FCU COOLING COIL, Design Size Design Inlet Air Humidity Ratio, 9.06152E-003
 Component Sizing Information, Coil:Cooling:Water, PERIMETER_TOP_ZN_2 ZN FCU COOLING COIL, Design Size Design Inlet Air Temperature [C], 25.37791
 Component Sizing Information, Coil:Cooling:Water, PERIMETER_TOP_ZN_2 ZN FCU COOLING COIL, Design Size Design Inlet Water Temperature [C], 6.66667
 Component Sizing Information, Coil:Cooling:Water, PERIMETER_TOP_ZN_2 ZN FCU COOLING COIL, Design Size Design Outlet Air Temperature [C], 12.77778
 Component Sizing Information, Coil:Cooling:Water, PERIMETER_TOP_ZN_2 ZN FCU COOLING COIL, Design Size Design Outlet Air Humidity Ratio, 8.50000E-003
[...]
 Component Sizing Information, Coil:Heating:Water, PERIMETER_TOP_ZN_4 ZN FCU HEATING COIL, Design Size U-Factor Times Area Value [W/K], 587.48878
Water Heating Coil Capacity Information,Coil:Heating:Water,PERIMETER_TOP_ZN_4 ZN FCU HEATING COIL,15171.35
 Component Sizing Information, AirLoopHVAC, 15 ZONE DOAS, Sum of Air Terminal Maximum Heating Flow Rates [m3/s], 0.00000
 Component Sizing Information, AirLoopHVAC, 15 ZONE DOAS, Sum of Air Terminal Minimum Heating Flow Rates [m3/s], 0.00000
 Component Sizing Information, AirLoopHVAC, 15 ZONE DOAS, Sum of Air Terminal Maximum Flow Rates [m3/s], 2.15131
 Component Sizing Information, AirLoopHVAC, 15 ZONE DOAS, Adjusted Heating Design Air Flow Rate [m3/s], 2.15131
 Component Sizing Information, AirLoopHVAC, 15 ZONE DOAS, Adjusted Cooling Design Air Flow Rate [m3/s], 2.15131
 Component Sizing Information, AirLoopHVAC, 15 ZONE DOAS, Adjusted Main Design Air Flow Rate [m3/s], 2.15131
 Component Sizing Information, AirLoopHVAC, 15 ZONE DOAS, User Heating Air Flow Ratio [], 1.00000
 Component Sizing Information, AirLoopHVAC, 15 ZONE DOAS, Calculated Heating Air Flow Ratio [], 1.00000
 Component Sizing Information, AirLoopHVAC, 15 ZONE DOAS, Design Supply Air Flow Rate [m3/s], 2.15131
 Component Sizing Information, Fan:ConstantVolume, DOAS EXHAUST FAN, Design Size Maximum Flow Rate [m3/s], 2.15131
!<Controller:MechanicalVentilation>,Name,Availability Schedule Name,Demand Controlled Ventilation {Yes/No},System Outdoor Air Method,Zone Maximum Outdoor Air Fraction,Number of Zones,Zone Name,DSOA Name,DSZAD Name
 Controller:MechanicalVentilation,15 ZONE DOAS MECHANICAL VENTILATION CONTROLLER,ALWAYS ON DISCRETE,No,ZoneSum,1.00,15,CORE_BOTTOM ZN,OFFICE WHOLEBUILDING - MD OFFICE VENTILATION,CORE_BOTTOM ZN DESIGN SPEC ZONE AIR DIST,CORE_MID ZN,OFFICE WHOLEBUILDING - MD OFFICE VENTILATION,CORE_MID ZN DESIGN SPEC ZONE AIR DIST,CORE_TOP ZN,OFFICE WHOLEBUILDING - MD OFFICE VENTILATION,CORE_TOP ZN DESIGN SPEC ZONE AIR DIST,PERIMETER_BOT_ZN_1 ZN,OFFICE WHOLEBUILDING - MD OFFICE VENTILATION,PERIMETER_BOT_ZN_1 ZN DESIGN SPEC ZONE AIR DIST,PERIMETER_BOT_ZN_2 ZN,OFFICE WHOLEBUILDING - MD OFFICE VENTILATION,PERIMETER_BOT_ZN_2 ZN DESIGN SPEC ZONE AIR DIST,PERIMETER_BOT_ZN_3 ZN,OFFICE WHOLEBUILDING - MD OFFICE VENTILATION,PERIMETER_BOT_ZN_3 ZN DESIGN SPEC ZONE AIR DIST,PERIMETER_BOT_ZN_4 ZN,OFFICE WHOLEBUILDING - MD OFFICE VENTILATION,PERIMETER_BOT_ZN_4 ZN DESIGN SPEC ZONE AIR DIST,PERIMETER_MID_ZN_1 ZN,OFFICE WHOLEBUILDING - MD OFFICE VENTILATION,PERIMETER_MID_ZN_1 ZN DESIGN SPEC ZONE AIR DIST,PERIMETER_MID_ZN_2 ZN,OFFICE WHOLEBUILDING - MD OFFICE VENTILATION,PERIMETER_MID_ZN_2 ZN DESIGN SPEC ZONE AIR DIST,PERIMETER_MID_ZN_3 ZN,OFFICE WHOLEBUILDING - MD OFFICE VENTILATION,PERIMETER_MID_ZN_3 ZN DESIGN SPEC ZONE AIR DIST,PERIMETER_MID_ZN_4 ZN,OFFICE WHOLEBUILDING - MD OFFICE VENTILATION,PERIMETER_MID_ZN_4 ZN DESIGN SPEC ZONE AIR DIST,PERIMETER_TOP_ZN_1 ZN,OFFICE WHOLEBUILDING - MD OFFICE VENTILATION,PERIMETER_TOP_ZN_1 ZN DESIGN SPEC ZONE AIR DIST,PERIMETER_TOP_ZN_2 ZN,OFFICE WHOLEBUILDING - MD OFFICE VENTILATION,PERIMETER_TOP_ZN_2 ZN DESIGN SPEC ZONE AIR DIST,PERIMETER_TOP_ZN_3 ZN,OFFICE WHOLEBUILDING - MD OFFICE VENTILATION,PERIMETER_TOP_ZN_3 ZN DESIGN SPEC ZONE AIR DIST,PERIMETER_TOP_ZN_4 ZN,OFFICE WHOLEBUILDING - MD OFFICE VENTILATION,PERIMETER_TOP_ZN_4 ZN DESIGN SPEC ZONE AIR DIST
 Component Sizing Information, Controller:OutdoorAir, 15 ZONE DOAS OUTDOOR AIR CONTROLLER, Maximum Outdoor Air Flow Rate [m3/s], 2.15131
 Component Sizing Information, Controller:OutdoorAir, 15 ZONE DOAS OUTDOOR AIR CONTROLLER, Minimum Outdoor Air Flow Rate [m3/s], 2.15131
 Component Sizing Information, HeatExchanger:AirToAir:SensibleAndLatent, 15 ZONE DOAS HEAT EXCHANGER, Design Size Nominal Supply Air Flow Rate [m3/s], 2.15131
 Component Sizing Information, Coil:Cooling:Water, 15 ZONE DOAS CLG COIL, Design Size Design Coil Load [W], 101025.85225
 Component Sizing Information, Coil:Cooling:Water, 15 ZONE DOAS CLG COIL, Design Size Design Water Flow Rate [m3/s], 4.28936E-003
 Component Sizing Information, Coil:Cooling:Water, 15 ZONE DOAS CLG COIL, Design Size Design Air Flow Rate [m3/s], 2.15131
 Component Sizing Information, Coil:Cooling:Water, 15 ZONE DOAS CLG COIL, Design Size Design Inlet Air Humidity Ratio, 1.51947E-002
 Component Sizing Information, Coil:Cooling:Water, 15 ZONE DOAS CLG COIL, Design Size Design Inlet Air Temperature [C], 36.00000
 Component Sizing Information, Coil:Cooling:Water, 15 ZONE DOAS CLG COIL, Design Size Design Inlet Water Temperature [C], 6.66667
 Component Sizing Information, Coil:Cooling:Water, 15 ZONE DOAS CLG COIL, Design Size Design Outlet Air Temperature [C], 14.51956
 Component Sizing Information, Coil:Cooling:Water, 15 ZONE DOAS CLG COIL, Design Size Design Outlet Air Humidity Ratio, 9.95486E-003
Water Cooling Coil Capacity Information,Coil:Cooling:Water,15 ZONE DOAS CLG COIL,61043.11,40254.64,20788.47,0.66,5394.28,54.71
 Component Sizing Information, Coil:Heating:Water, 15 ZONE DOAS HTG COIL, Design Size Rated Capacity [W], 58923.70164
 Component Sizing Information, Coil:Heating:Water, 15 ZONE DOAS HTG COIL, Design Size Maximum Water Flow Rate [m3/s], 1.28883E-003
 Component Sizing Information, Coil:Heating:Water, 15 ZONE DOAS HTG COIL, Design Size U-Factor Times Area Value [W/K], 1857.52423
Water Heating Coil Capacity Information,Coil:Heating:Water,15 ZONE DOAS HTG COIL,76863.42
 Component Sizing Information, Fan:ConstantVolume, DOAS SUPPLY FAN, Design Size Maximum Flow Rate [m3/s], 2.15131
 Component Sizing Information, Controller:WaterCoil, 15 ZONE DOAS CLG COIL CONTROLLER, Maximum Actuated Flow [m3/s], 4.28936E-003
 Component Sizing Information, Controller:WaterCoil, 15 ZONE DOAS CLG COIL CONTROLLER, Controller Convergence Tolerance, 1.11017E-004
 Component Sizing Information, Controller:WaterCoil, 15 ZONE DOAS HTG COIL CONTROLLER, Maximum Actuated Flow [m3/s], 1.28883E-003
Water Heater Information,WaterHeater:Mixed,100GAL NATURAL GAS WATER HEATER - 100KBTU/HR 0.802 THERM EFF,0.3785,29307.1,1.006,0.2940
 Component Sizing Information, Pump:VariableSpeed, CHILLED WATER LOOP SECONDARY PUMP, Design Flow Rate [m3/s], 1.56925E-002
 Component Sizing Information, Pump:VariableSpeed, CHILLED WATER LOOP SECONDARY PUMP, Design Power Consumption [W], 3006.78379
 Component Sizing Information, PlantLoop, CHILLED WATER LOOP, Maximum Loop Flow Rate [m3/s], 1.56925E-002
 Component Sizing Information, PlantLoop, CHILLED WATER LOOP, Plant Loop Volume [m3], 1.88310
 Component Sizing Information, Pump:ConstantSpeed, CHILLED WATER LOOP PRIMARY PUMP, Design Flow Rate [m3/s], 1.56925E-002
 Component Sizing Information, Pump:ConstantSpeed, CHILLED WATER LOOP PRIMARY PUMP, Design Power Consumption [W], 1002.26126
 Component Sizing Information, Chiller:Electric:EIR, NREL ZNE READY 2017 WATERCOOLED  ROTARY SCREW CHILLER 0, Design Size Reference Chilled Water Flow Rate [m3/s], 1.56925E-002
 Component Sizing Information, Chiller:Electric:EIR, NREL ZNE READY 2017 WATERCOOLED  ROTARY SCREW CHILLER 0, Design Size Reference Capacity [W], 369599.11352
 Component Sizing Information, Chiller:Electric:EIR, NREL ZNE READY 2017 WATERCOOLED  ROTARY SCREW CHILLER 0, Design Size Reference Condenser Fluid Flow Rate [m3/s], 1.88114E-002
! <Chiller Standard Rating Information>, Component Type, Component Name, IPLV in SI Units {W/W}, IPLV in IP Units {Btu/W-h}
 Chiller Standard Rating Information, Chiller:Electric:EIR, NREL ZNE READY 2017 WATERCOOLED  ROTARY SCREW CHILLER 0, 7.88, 26.88
 Component Sizing Information, PlantLoop, CONDENSER WATER LOOP, Maximum Loop Flow Rate [m3/s], 1.88114E-002
 Component Sizing Information, PlantLoop, CONDENSER WATER LOOP, Plant Loop Volume [m3], 2.25737
 Component Sizing Information, Pump:ConstantSpeed, CONDENSER WATER LOOP CONSTANT PUMP, Design Flow Rate [m3/s], 1.88114E-002
 Component Sizing Information, Pump:ConstantSpeed, CONDENSER WATER LOOP CONSTANT PUMP, Design Power Consumption [W], 3980.86112
 Component Sizing Information, CoolingTower:VariableSpeed, PROPELLER OR AXIAL VARIABLE SPEED FAN OPEN COOLING TOWER, Design Water Flow Rate [m3/s], 1.88114E-002
 Component Sizing Information, CoolingTower:VariableSpeed, PROPELLER OR AXIAL VARIABLE SPEED FAN OPEN COOLING TOWER, Fan Power at Design Air Flow Rate [W], 4586.26709
 Component Sizing Information, CoolingTower:VariableSpeed, PROPELLER OR AXIAL VARIABLE SPEED FAN OPEN COOLING TOWER, Design Air Flow Rate [m3/s], 12.11071
 Component Sizing Information, CoolingTower:VariableSpeed, PROPELLER OR AXIAL VARIABLE SPEED FAN OPEN COOLING TOWER, Nominal Capacity [W], 434222.44232
 Component Sizing Information, CoolingTower:VariableSpeed, PROPELLER OR AXIAL VARIABLE SPEED FAN OPEN COOLING TOWER, Air Flow Rate in free convection regime [m3/s], 2.42214
 Component Sizing Information, CoolingTower:VariableSpeed, PROPELLER OR AXIAL VARIABLE SPEED FAN OPEN COOLING TOWER, Tower capacity in free convection regime at design conditions [W], 54277.80529
 Component Sizing Information, PlantLoop, HOT WATER LOOP, Maximum Loop Flow Rate [m3/s], 4.09739E-003
 Component Sizing Information, PlantLoop, HOT WATER LOOP, Plant Loop Volume [m3], 0.49169
 Component Sizing Information, Pump:VariableSpeed, HOT WATER LOOP PUMP, Design Flow Rate [m3/s], 4.09739E-003
 Component Sizing Information, Pump:VariableSpeed, HOT WATER LOOP PUMP, Design Power Consumption [W], 1046.78312
 Component Sizing Information, Boiler:HotWater, BOILER, Design Size Nominal Capacity [W], 187327.59479
 Component Sizing Information, Boiler:HotWater, BOILER, Design Size Design Water Flow Rate [m3/s], 4.09739E-003
 Component Sizing Information, PlantLoop, MAIN SERVICE WATER LOOP, Maximum Loop Flow Rate [m3/s], 5.36265E-005
 Component Sizing Information, PlantLoop, MAIN SERVICE WATER LOOP, Plant Loop Volume [m3], 6.43518E-003
 Component Sizing Information, Pump:ConstantSpeed, SERVICE WATER LOOP PUMP, Design Flow Rate [m3/s], 5.36265E-005
 Component Sizing Information, Pump:ConstantSpeed, SERVICE WATER LOOP PUMP, Design Power Consumption [W], 2.93580
 Component Sizing Information, WaterHeater:Mixed, 100GAL NATURAL GAS WATER HEATER - 100KBTU/HR 0.802 THERM EFF, Use Side Design Flow Rate [m3/s], 5.36265E-005
! <Environment>,Environment Name,Environment Type, Start Date, End Date, Start DayOfWeek, Duration {#days}, Source:Start DayOfWeek,  Use Daylight Saving, Use Holidays, Apply Weekend Holiday Rule,  Use Rain Values, Use Snow Values
! <Environment:Special Days>, Special Day Name, Special Day Type, Source, Start Date, Duration {#days}
! <Environment:Daylight Saving>, Daylight Saving Indicator, Source, Start Date, End Date
! <Environment:WarmupDays>, NumberofWarmupDays
Environment,HOUSTON BUSH INTERCONTINENTAL ANN CLG .4% CONDNS DB=>MWB,SizingPeriod:DesignDay,07/21,07/21,SummerDesignDay,1,N/A,N/A,N/A,N/A,N/A,N/A
Environment:Daylight Saving,No,SizingPeriod:DesignDay
! <Environment:Design Day Data>, Max Dry-Bulb Temp {C}, Temp Range {dC}, Temp Range Ind Type, Hum Ind Value at Max Temp, Hum Ind Type,Pressure {Pa}, Wind Direction {deg CW from N}, Wind Speed {m/s}, Clearness, Rain, Snow
! <Environment:Design Day Misc>,DayOfYear,ASHRAE A Coeff,ASHRAE B Coeff,ASHRAE C Coeff,Solar Constant-Annual Variation,Eq of Time {minutes}, Solar Declination Angle {deg}, Solar Model
Environment:Design Day Data,36.00,10.10,DefaultMultipliers,100977,170,3.5,0.00,No,No
Environment:Design Day Misc,202,1084.4,0.2082,0.1365,1.0,-6.23,20.6,ASHRAETau
Environment:WarmupDays,  6
! <Tabular Report>,Style,Unit Conversion
Tabular Report,HTML,None
! <Warmup Convergence Information>,Zone Name,Environment Type/Name,Average Warmup Temperature Difference {deltaC},Std Dev Warmup Temperature Difference {deltaC},Max Temperature Pass/Fail Convergence,Min Temperature Pass/Fail Convergence,Average Warmup Load Difference {W},Std Dev Warmup Load Difference {W},Heating Load Pass/Fail Convergence,Cooling Load Pass/Fail Convergence
 Warmup Convergence Information,CORE_BOTTOM ZN,SizingPeriod: HOUSTON BUSH INTERCONTINENTAL ANN CLG .4% CONDNS DB=>MWB,3.7514372525E-002,0.1884518475,Pass,Pass,2.9065902550E-002,0.1334547846,Pass,Pass
 Warmup Convergence Information,CORE_MID ZN,SizingPeriod: HOUSTON BUSH INTERCONTINENTAL ANN CLG .4% CONDNS DB=>MWB,3.7541258388E-002,0.1511634596,Pass,Pass,4.6422446003E-002,0.2973653856,Pass,Pass
 Warmup Convergence Information,CORE_TOP ZN,SizingPeriod: HOUSTON BUSH INTERCONTINENTAL ANN CLG .4% CONDNS DB=>MWB,3.7538928879E-002,0.1547739124,Pass,Pass,4.8497816218E-002,0.3049188829,Pass,Pass
 Warmup Convergence Information,FIRSTFLOOR_PLENUM ZN,SizingPeriod: HOUSTON BUSH INTERCONTINENTAL ANN CLG .4% CONDNS DB=>MWB,6.9491244376E-003,6.3145074493E-003,Pass,Pass,0.0000000000,0.0000000000,Pass,Pass
 Warmup Convergence Information,MIDFLOOR_PLENUM ZN,SizingPeriod: HOUSTON BUSH INTERCONTINENTAL ANN CLG .4% CONDNS DB=>MWB,6.5819894735E-003,5.6438281183E-003,Pass,Pass,0.0000000000,0.0000000000,Pass,Pass
 Warmup Convergence Information,PERIMETER_BOT_ZN_1 ZN,SizingPeriod: HOUSTON BUSH INTERCONTINENTAL ANN CLG .4% CONDNS DB=>MWB,3.7620631003E-002,0.1511647248,Pass,Pass,4.7774504428E-002,0.2847675595,Pass,Pass
 Warmup Convergence Information,PERIMETER_BOT_ZN_2 ZN,SizingPeriod: HOUSTON BUSH INTERCONTINENTAL ANN CLG .4% CONDNS DB=>MWB,3.7739728004E-002,0.1525484315,Pass,Pass,4.8151786025E-002,0.2908088111,Pass,Pass
 Warmup Convergence Information,PERIMETER_BOT_ZN_3 ZN,SizingPeriod: HOUSTON BUSH INTERCONTINENTAL ANN CLG .4% CONDNS DB=>MWB,3.6826958935E-002,0.1448366288,Pass,Pass,4.5888855686E-002,0.2823955497,Pass,Pass
 Warmup Convergence Information,PERIMETER_BOT_ZN_4 ZN,SizingPeriod: HOUSTON BUSH INTERCONTINENTAL ANN CLG .4% CONDNS DB=>MWB,3.9254002569E-002,0.1671978828,Pass,Pass,6.3798803030E-002,0.3242168232,Pass,Pass
 Warmup Convergence Information,PERIMETER_MID_ZN_1 ZN,SizingPeriod: HOUSTON BUSH INTERCONTINENTAL ANN CLG .4% CONDNS DB=>MWB,3.7829140142E-002,0.1677788123,Pass,Pass,6.3575730339E-002,0.3611956722,Pass,Pass
 Warmup Convergence Information,PERIMETER_MID_ZN_2 ZN,SizingPeriod: HOUSTON BUSH INTERCONTINENTAL ANN CLG .4% CONDNS DB=>MWB,3.7995806962E-002,0.1696186283,Pass,Pass,6.5785526155E-002,0.3713816082,Pass,Pass
 Warmup Convergence Information,PERIMETER_MID_ZN_3 ZN,SizingPeriod: HOUSTON BUSH INTERCONTINENTAL ANN CLG .4% CONDNS DB=>MWB,3.7533117081E-002,0.1620191951,Pass,Pass,5.5798699766E-002,0.3506417569,Pass,Pass
 Warmup Convergence Information,PERIMETER_MID_ZN_4 ZN,SizingPeriod: HOUSTON BUSH INTERCONTINENTAL ANN CLG .4% CONDNS DB=>MWB,3.7966623456E-002,0.1781107477,Pass,Pass,7.7077191449E-002,0.3978947291,Pass,Pass
 Warmup Convergence Information,PERIMETER_TOP_ZN_1 ZN,SizingPeriod: HOUSTON BUSH INTERCONTINENTAL ANN CLG .4% CONDNS DB=>MWB,3.7954274062E-002,0.1710304900,Pass,Pass,6.7885452410E-002,0.3714168462,Pass,Pass
 Warmup Convergence Information,PERIMETER_TOP_ZN_2 ZN,SizingPeriod: HOUSTON BUSH INTERCONTINENTAL ANN CLG .4% CONDNS DB=>MWB,3.8010924315E-002,0.1715145684,Pass,Pass,6.6924864378E-002,0.3796955070,Pass,Pass
 Warmup Convergence Information,PERIMETER_TOP_ZN_3 ZN,SizingPeriod: HOUSTON BUSH INTERCONTINENTAL ANN CLG .4% CONDNS DB=>MWB,3.7911782684E-002,0.1680895158,Pass,Pass,6.3648233530E-002,0.3698825939,Pass,Pass
 Warmup Convergence Information,PERIMETER_TOP_ZN_4 ZN,SizingPeriod: HOUSTON BUSH INTERCONTINENTAL ANN CLG .4% CONDNS DB=>MWB,3.7939466700E-002,0.1794856614,Pass,Pass,8.0580919428E-002,0.4055856587,Pass,Pass
 Warmup Convergence Information,TOPFLOOR_PLENUM ZN,SizingPeriod: HOUSTON BUSH INTERCONTINENTAL ANN CLG .4% CONDNS DB=>MWB,5.9757637359E-002,5.1161705837E-002,Pass,Pass,0.0000000000,0.0000000000,Pass,Pass
Environment,HOUSTON BUSH INTERCONTINENTAL ANN HTG 99.6% CONDNS DB,SizingPeriod:DesignDay,01/21,01/21,WinterDesignDay,1,N/A,N/A,N/A,N/A,N/A,N/A
Environment:Daylight Saving,No,SizingPeriod:DesignDay
Environment:Design Day Data,-1.60,0.00,DefaultMultipliers,100977,0,2.8,0.00,No,No
Environment:Design Day Misc, 21,1229.0,0.1415,5.7310E-002,1.0,-11.15,-20.1,ASHRAEClearSky
Environment:WarmupDays,  6
 Warmup Convergence Information,CORE_BOTTOM ZN,SizingPeriod: HOUSTON BUSH INTERCONTINENTAL ANN HTG 99.6% CONDNS DB,1.4796954623E-002,8.2439484361E-002,Pass,Pass,0.1399773437,0.9673233375,Pass,Pass
 Warmup Convergence Information,CORE_MID ZN,SizingPeriod: HOUSTON BUSH INTERCONTINENTAL ANN HTG 99.6% CONDNS DB,2.9003790886E-002,0.1221568146,Pass,Pass,0.1164687008,0.9241343562,Pass,Pass
 Warmup Convergence Information,CORE_TOP ZN,SizingPeriod: HOUSTON BUSH INTERCONTINENTAL ANN HTG 99.6% CONDNS DB,4.8041996382E-002,0.1888344260,Pass,Pass,0.1471494602,1.0659009597,Pass,Pass
 Warmup Convergence Information,FIRSTFLOOR_PLENUM ZN,SizingPeriod: HOUSTON BUSH INTERCONTINENTAL ANN HTG 99.6% CONDNS DB,9.9362094333E-003,8.6092691738E-003,Pass,Pass,0.0000000000,0.0000000000,Pass,Pass
 Warmup Convergence Information,MIDFLOOR_PLENUM ZN,SizingPeriod: HOUSTON BUSH INTERCONTINENTAL ANN HTG 99.6% CONDNS DB,1.4315452366E-002,1.2297723450E-002,Pass,Pass,0.0000000000,0.0000000000,Pass,Pass
 Warmup Convergence Information,PERIMETER_BOT_ZN_1 ZN,SizingPeriod: HOUSTON BUSH INTERCONTINENTAL ANN HTG 99.6% CONDNS DB,5.9078382964E-002,0.2349413703,Pass,Pass,0.1919632876,1.2943338849,Pass,Pass
 Warmup Convergence Information,PERIMETER_BOT_ZN_2 ZN,SizingPeriod: HOUSTON BUSH INTERCONTINENTAL ANN HTG 99.6% CONDNS DB,6.1825051607E-002,0.2466948296,Pass,Pass,0.1951241495,1.3504948313,Pass,Pass
 Warmup Convergence Information,PERIMETER_BOT_ZN_3 ZN,SizingPeriod: HOUSTON BUSH INTERCONTINENTAL ANN HTG 99.6% CONDNS DB,5.8954365481E-002,0.2327634620,Pass,Pass,0.1899882804,1.2854232554,Pass,Pass
 Warmup Convergence Information,PERIMETER_BOT_ZN_4 ZN,SizingPeriod: HOUSTON BUSH INTERCONTINENTAL ANN HTG 99.6% CONDNS DB,6.1798217541E-002,0.2469135209,Pass,Pass,0.1942170464,1.3482875853,Pass,Pass
 Warmup Convergence Information,PERIMETER_MID_ZN_1 ZN,SizingPeriod: HOUSTON BUSH INTERCONTINENTAL ANN HTG 99.6% CONDNS DB,7.1237559739E-002,0.2740642538,Pass,Pass,0.1524224694,1.2457775789,Pass,Pass
 Warmup Convergence Information,PERIMETER_MID_ZN_2 ZN,SizingPeriod: HOUSTON BUSH INTERCONTINENTAL ANN HTG 99.6% CONDNS DB,7.3966083695E-002,0.2898458900,Pass,Pass,0.1556014977,1.2753121640,Pass,Pass
 Warmup Convergence Information,PERIMETER_MID_ZN_3 ZN,SizingPeriod: HOUSTON BUSH INTERCONTINENTAL ANN HTG 99.6% CONDNS DB,7.1329387345E-002,0.2731038454,Pass,Pass,0.1528810342,1.2434994764,Pass,Pass
 Warmup Convergence Information,PERIMETER_MID_ZN_4 ZN,SizingPeriod: HOUSTON BUSH INTERCONTINENTAL ANN HTG 99.6% CONDNS DB,7.3967860834E-002,0.2904558756,Pass,Pass,0.1559294285,1.2757191088,Pass,Pass
 Warmup Convergence Information,PERIMETER_TOP_ZN_1 ZN,SizingPeriod: HOUSTON BUSH INTERCONTINENTAL ANN HTG 99.6% CONDNS DB,7.5048464749E-002,0.3009521293,Pass,Pass,0.1484782049,1.3206257516,Pass,Pass
 Warmup Convergence Information,PERIMETER_TOP_ZN_2 ZN,SizingPeriod: HOUSTON BUSH INTERCONTINENTAL ANN HTG 99.6% CONDNS DB,7.5088865000E-002,0.3103143821,Pass,Pass,0.1510697931,1.3471589801,Pass,Pass
 Warmup Convergence Information,PERIMETER_TOP_ZN_3 ZN,SizingPeriod: HOUSTON BUSH INTERCONTINENTAL ANN HTG 99.6% CONDNS DB,7.5038393547E-002,0.3002993707,Pass,Pass,0.1481588836,1.3179715794,Pass,Pass
 Warmup Convergence Information,PERIMETER_TOP_ZN_4 ZN,SizingPeriod: HOUSTON BUSH INTERCONTINENTAL ANN HTG 99.6% CONDNS DB,7.5053376549E-002,0.3115904129,Pass,Pass,0.1513311683,1.3471660689,Pass,Pass
 Warmup Convergence Information,TOPFLOOR_PLENUM ZN,SizingPeriod: HOUSTON BUSH INTERCONTINENTAL ANN HTG 99.6% CONDNS DB,3.6232706512E-002,4.1809313723E-002,Pass,Pass,0.0000000000,0.0000000000,Pass,Pass
! <Program Control Information:Threads/Parallel Sims>, Threading Supported,Maximum Number of Threads, Env Set Threads (OMP_NUM_THREADS), EP Env Set Threads (EP_OMP_NUM_THREADS), IDF Set Threads, Number of Threads Used (Interior Radiant Exchange), Number Nominal Surfaces, Number Parallel Sims
Program Control:Threads/Parallel Sims, No,1, N/A, N/A, N/A, N/A, N/A, N/A
End of Data
