Program Version,EnergyPlus, Version 9.1.0-08d2e308bb, YMD=2019.04.09 23:08,
   ************* Beginning Zone Sizing Calculations
   ** Warning ** ProcessScheduleInput: Schedule:Day:Interval="ECONOMIZER MAX OA FRACTION 70 PCT DEFAULT", Blank Schedule Type Limits Name input -- will not be validated.
   ** Warning ** ProcessScheduleInput: Schedule:Day:Interval="ECONOMIZER MAX OA FRACTION 70 PCT DEFAULT 1", Blank Schedule Type Limits Name input -- will not be validated.
   ** Warning ** ProcessScheduleInput: Schedule:Day:Interval="OFFICEMEDIUM HVACOPERATIONSCHD DEFAULT", Blank Schedule Type Limits Name input -- will not be validated.
   ** Warning ** ProcessScheduleInput: Schedule:Day:Interval="OFFICEMEDIUM HVACOPERATIONSCHD SMRDSN|WKDY DAY", Blank Schedule Type Limits Name input -- will not be validated.
   ** Warning ** ProcessScheduleInput: Schedule:Day:Interval="OFFICEMEDIUM HVACOPERATIONSCHD SUMMER DESIGN DAY", Blank Schedule Type Limits Name input -- will not be validated.
   ** Warning ** ProcessScheduleInput: Schedule:Day:Interval="OFFICEMEDIUM HVACOPERATIONSCHD WINTER DESIGN DAY", Blank Schedule Type Limits Name input -- will not be validated.
   ** Warning ** ProcessScheduleInput: Schedule:Day:Interval="OFFICEMEDIUM HVACOPERATIONSCHD WNTRDSN|SAT DAY", Blank Schedule Type Limits Name input -- will not be validated.
   ** Warning ** ProcessScheduleInput: Schedule:Day:Interval="SCHEDULE DAY 1", Blank Schedule Type Limits Name input -- will not be validated.
   ** Warning ** ProcessScheduleInput: Schedule:Day:Interval="SCHEDULE DAY 2", Blank Schedule Type Limits Name input -- will not be validated.
   ** Warning ** ProcessScheduleInput: Schedule:Year="ECONOMIZER MAX OA FRACTION 70 PCT", Blank Schedule Type Limits Name input -- will not be validated.
   ** Warning ** ProcessScheduleInput: Schedule:Year="OFFICEMEDIUM HVACOPERATIONSCHD", Blank Schedule Type Limits Name input -- will not be validated.
   ** Warning ** ProcessScheduleInput: Schedule:Constant="ALWAYS OFF DISCRETE", Blank Schedule Type Limits Name input -- will not be validated.
   ** Warning ** ProcessScheduleInput: Schedule:Constant="ALWAYS ON CONTINUOUS", Blank Schedule Type Limits Name input -- will not be validated.
   ** Warning ** CheckUsedConstructions: There are 9 nominally unused constructions in input.
   **   ~~~   ** For explicit details on each unused construction, use Output:Diagnostics,DisplayExtraWarnings;
   ** Warning ** GetDaylightingControls: Fraction of Zone controlled by the Daylighting reference points is < 1.0.
   **   ~~~   ** ..discovered in "Daylighting:Controls" for Zone="PERIMETER_BOT_ZN_1 ZN", only 0.52 of the zone is controlled.
   ** Warning ** GetDaylightingControls: Fraction of Zone controlled by the Daylighting reference points is < 1.0.
   **   ~~~   ** ..discovered in "Daylighting:Controls" for Zone="PERIMETER_BOT_ZN_2 ZN", only 0.52 of the zone is controlled.
   ** Warning ** GetDaylightingControls: Fraction of Zone controlled by the Daylighting reference points is < 1.0.
   **   ~~~   ** ..discovered in "Daylighting:Controls" for Zone="PERIMETER_BOT_ZN_3 ZN", only 0.52 of the zone is controlled.
   ** Warning ** GetDaylightingControls: Fraction of Zone controlled by the Daylighting reference points is < 1.0.
   **   ~~~   ** ..discovered in "Daylighting:Controls" for Zone="PERIMETER_BOT_ZN_4 ZN", only 0.52 of the zone is controlled.
   ** Warning ** GetDaylightingControls: Fraction of Zone controlled by the Daylighting reference points is < 1.0.
   **   ~~~   ** ..discovered in "Daylighting:Controls" for Zone="PERIMETER_MID_ZN_1 ZN", only 0.52 of the zone is controlled.
   ** Warning ** GetDaylightingControls: Fraction of Zone controlled by the Daylighting reference points is < 1.0.
   **   ~~~   ** ..discovered in "Daylighting:Controls" for Zone="PERIMETER_MID_ZN_2 ZN", only 0.52 of the zone is controlled.
   ** Warning ** GetDaylightingControls: Fraction of Zone controlled by the Daylighting reference points is < 1.0.
   **   ~~~   ** ..discovered in "Daylighting:Controls" for Zone="PERIMETER_MID_ZN_3 ZN", only 0.52 of the zone is controlled.
   ** Warning ** GetDaylightingControls: Fraction of Zone controlled by the Daylighting reference points is < 1.0.
   **   ~~~   ** ..discovered in "Daylighting:Controls" for Zone="PERIMETER_MID_ZN_4 ZN", only 0.52 of the zone is controlled.
   ** Warning ** GetDaylightingControls: Fraction of Zone controlled by the Daylighting reference points is < 1.0.
   **   ~~~   ** ..discovered in "Daylighting:Controls" for Zone="PERIMETER_TOP_ZN_1 ZN", only 0.52 of the zone is controlled.
   ** Warning ** GetDaylightingControls: Fraction of Zone controlled by the Daylighting reference points is < 1.0.
   **   ~~~   ** ..discovered in "Daylighting:Controls" for Zone="PERIMETER_TOP_ZN_2 ZN", only 0.52 of the zone is controlled.
   ** Warning ** GetDaylightingControls: Fraction of Zone controlled by the Daylighting reference points is < 1.0.
   **   ~~~   ** ..discovered in "Daylighting:Controls" for Zone="PERIMETER_TOP_ZN_3 ZN", only 0.52 of the zone is controlled.
   ** Warning ** GetDaylightingControls: Fraction of Zone controlled by the Daylighting reference points is < 1.0.
   **   ~~~   ** ..discovered in "Daylighting:Controls" for Zone="PERIMETER_TOP_ZN_4 ZN", only 0.52 of the zone is controlled.
   ************* Beginning System Sizing Calculations
   ** Warning ** Since Zone Minimum Air Flow Input Method = CONSTANT, input for Fixed Minimum Air Flow Rate will be ignored.
   **   ~~~   ** Occurs in AirTerminal:SingleDuct:VAV:NoReheat = CORE_BOTTOM ZN AIR TERMINAL
   ** Warning ** Since Zone Minimum Air Flow Input Method = CONSTANT, input for Fixed Minimum Air Flow Rate will be ignored.
   **   ~~~   ** Occurs in AirTerminal:SingleDuct:VAV:NoReheat = CORE_MID ZN AIR TERMINAL
   ** Warning ** Since Zone Minimum Air Flow Input Method = CONSTANT, input for Fixed Minimum Air Flow Rate will be ignored.
   **   ~~~   ** Occurs in AirTerminal:SingleDuct:VAV:NoReheat = CORE_TOP ZN AIR TERMINAL
   ** Warning ** Since Zone Minimum Air Flow Input Method = CONSTANT, input for Fixed Minimum Air Flow Rate will be ignored.
   **   ~~~   ** Occurs in AirTerminal:SingleDuct:VAV:NoReheat = PERIMETER_BOT_ZN_1 ZN AIR TERMINAL
   ** Warning ** Since Zone Minimum Air Flow Input Method = CONSTANT, input for Fixed Minimum Air Flow Rate will be ignored.
   **   ~~~   ** Occurs in AirTerminal:SingleDuct:VAV:NoReheat = PERIMETER_BOT_ZN_2 ZN AIR TERMINAL
   ** Warning ** Since Zone Minimum Air Flow Input Method = CONSTANT, input for Fixed Minimum Air Flow Rate will be ignored.
   **   ~~~   ** Occurs in AirTerminal:SingleDuct:VAV:NoReheat = PERIMETER_BOT_ZN_3 ZN AIR TERMINAL
   ** Warning ** Since Zone Minimum Air Flow Input Method = CONSTANT, input for Fixed Minimum Air Flow Rate will be ignored.
   **   ~~~   ** Occurs in AirTerminal:SingleDuct:VAV:NoReheat = PERIMETER_BOT_ZN_4 ZN AIR TERMINAL
   ** Warning ** Since Zone Minimum Air Flow Input Method = CONSTANT, input for Fixed Minimum Air Flow Rate will be ignored.
   **   ~~~   ** Occurs in AirTerminal:SingleDuct:VAV:NoReheat = PERIMETER_MID_ZN_1 ZN AIR TERMINAL
   ** Warning ** Since Zone Minimum Air Flow Input Method = CONSTANT, input for Fixed Minimum Air Flow Rate will be ignored.
   **   ~~~   ** Occurs in AirTerminal:SingleDuct:VAV:NoReheat = PERIMETER_MID_ZN_2 ZN AIR TERMINAL
   ** Warning ** Since Zone Minimum Air Flow Input Method = CONSTANT, input for Fixed Minimum Air Flow Rate will be ignored.
   **   ~~~   ** Occurs in AirTerminal:SingleDuct:VAV:NoReheat = PERIMETER_MID_ZN_3 ZN AIR TERMINAL
   ** Warning ** Since Zone Minimum Air Flow Input Method = CONSTANT, input for Fixed Minimum Air Flow Rate will be ignored.
   **   ~~~   ** Occurs in AirTerminal:SingleDuct:VAV:NoReheat = PERIMETER_MID_ZN_4 ZN AIR TERMINAL
   ** Warning ** Since Zone Minimum Air Flow Input Method = CONSTANT, input for Fixed Minimum Air Flow Rate will be ignored.
   **   ~~~   ** Occurs in AirTerminal:SingleDuct:VAV:NoReheat = PERIMETER_TOP_ZN_1 ZN AIR TERMINAL
   ** Warning ** Since Zone Minimum Air Flow Input Method = CONSTANT, input for Fixed Minimum Air Flow Rate will be ignored.
   **   ~~~   ** Occurs in AirTerminal:SingleDuct:VAV:NoReheat = PERIMETER_TOP_ZN_2 ZN AIR TERMINAL
   ** Warning ** Since Zone Minimum Air Flow Input Method = CONSTANT, input for Fixed Minimum Air Flow Rate will be ignored.
   **   ~~~   ** Occurs in AirTerminal:SingleDuct:VAV:NoReheat = PERIMETER_TOP_ZN_3 ZN AIR TERMINAL
   ** Warning ** Since Zone Minimum Air Flow Input Method = CONSTANT, input for Fixed Minimum Air Flow Rate will be ignored.
   **   ~~~   ** Occurs in AirTerminal:SingleDuct:VAV:NoReheat = PERIMETER_TOP_ZN_4 ZN AIR TERMINAL
   ************* Beginning Plant Sizing Calculations
   ** Warning ** Controller:MechanicalVentilation="15 ZONE DOAS MECHANICAL VENTILATION CONTROLLER", Zone OA/person rate
   **   ~~~   ** For Zone="CORE_BOTTOM ZN".
   **   ~~~   ** Zone outside air per person rate not set in Design Specification Outdoor Air Object="OFFICE WHOLEBUILDING - MD OFFICE VENTILATION".
   ** Warning ** Controller:MechanicalVentilation="15 ZONE DOAS MECHANICAL VENTILATION CONTROLLER", Zone OA/person rate
   **   ~~~   ** For Zone="CORE_MID ZN".
   **   ~~~   ** Zone outside air per person rate not set in Design Specification Outdoor Air Object="OFFICE WHOLEBUILDING - MD OFFICE VENTILATION".
   ** Warning ** Controller:MechanicalVentilation="15 ZONE DOAS MECHANICAL VENTILATION CONTROLLER", Zone OA/person rate
   **   ~~~   ** For Zone="CORE_TOP ZN".
   **   ~~~   ** Zone outside air per person rate not set in Design Specification Outdoor Air Object="OFFICE WHOLEBUILDING - MD OFFICE VENTILATION".
   ** Warning ** Controller:MechanicalVentilation="15 ZONE DOAS MECHANICAL VENTILATION CONTROLLER", Zone OA/person rate
   **   ~~~   ** For Zone="PERIMETER_BOT_ZN_1 ZN".
   **   ~~~   ** Zone outside air per person rate not set in Design Specification Outdoor Air Object="OFFICE WHOLEBUILDING - MD OFFICE VENTILATION".
   ** Warning ** Controller:MechanicalVentilation="15 ZONE DOAS MECHANICAL VENTILATION CONTROLLER", Zone OA/person rate
   **   ~~~   ** For Zone="PERIMETER_BOT_ZN_2 ZN".
   **   ~~~   ** Zone outside air per person rate not set in Design Specification Outdoor Air Object="OFFICE WHOLEBUILDING - MD OFFICE VENTILATION".
   ** Warning ** Controller:MechanicalVentilation="15 ZONE DOAS MECHANICAL VENTILATION CONTROLLER", Zone OA/person rate
   **   ~~~   ** For Zone="PERIMETER_BOT_ZN_3 ZN".
   **   ~~~   ** Zone outside air per person rate not set in Design Specification Outdoor Air Object="OFFICE WHOLEBUILDING - MD OFFICE VENTILATION".
   ** Warning ** Controller:MechanicalVentilation="15 ZONE DOAS MECHANICAL VENTILATION CONTROLLER", Zone OA/person rate
   **   ~~~   ** For Zone="PERIMETER_BOT_ZN_4 ZN".
   **   ~~~   ** Zone outside air per person rate not set in Design Specification Outdoor Air Object="OFFICE WHOLEBUILDING - MD OFFICE VENTILATION".
   ** Warning ** Controller:MechanicalVentilation="15 ZONE DOAS MECHANICAL VENTILATION CONTROLLER", Zone OA/person rate
   **   ~~~   ** For Zone="PERIMETER_MID_ZN_1 ZN".
   **   ~~~   ** Zone outside air per person rate not set in Design Specification Outdoor Air Object="OFFICE WHOLEBUILDING - MD OFFICE VENTILATION".
   ** Warning ** Controller:MechanicalVentilation="15 ZONE DOAS MECHANICAL VENTILATION CONTROLLER", Zone OA/person rate
   **   ~~~   ** For Zone="PERIMETER_MID_ZN_2 ZN".
   **   ~~~   ** Zone outside air per person rate not set in Design Specification Outdoor Air Object="OFFICE WHOLEBUILDING - MD OFFICE VENTILATION".
   ** Warning ** Controller:MechanicalVentilation="15 ZONE DOAS MECHANICAL VENTILATION CONTROLLER", Zone OA/person rate
   **   ~~~   ** For Zone="PERIMETER_MID_ZN_3 ZN".
   **   ~~~   ** Zone outside air per person rate not set in Design Specification Outdoor Air Object="OFFICE WHOLEBUILDING - MD OFFICE VENTILATION".
   ** Warning ** Controller:MechanicalVentilation="15 ZONE DOAS MECHANICAL VENTILATION CONTROLLER", Zone OA/person rate
   **   ~~~   ** For Zone="PERIMETER_MID_ZN_4 ZN".
   **   ~~~   ** Zone outside air per person rate not set in Design Specification Outdoor Air Object="OFFICE WHOLEBUILDING - MD OFFICE VENTILATION".
   ** Warning ** Controller:MechanicalVentilation="15 ZONE DOAS MECHANICAL VENTILATION CONTROLLER", Zone OA/person rate
   **   ~~~   ** For Zone="PERIMETER_TOP_ZN_1 ZN".
   **   ~~~   ** Zone outside air per person rate not set in Design Specification Outdoor Air Object="OFFICE WHOLEBUILDING - MD OFFICE VENTILATION".
   ** Warning ** Controller:MechanicalVentilation="15 ZONE DOAS MECHANICAL VENTILATION CONTROLLER", Zone OA/person rate
   **   ~~~   ** For Zone="PERIMETER_TOP_ZN_2 ZN".
   **   ~~~   ** Zone outside air per person rate not set in Design Specification Outdoor Air Object="OFFICE WHOLEBUILDING - MD OFFICE VENTILATION".
   ** Warning ** Controller:MechanicalVentilation="15 ZONE DOAS MECHANICAL VENTILATION CONTROLLER", Zone OA/person rate
   **   ~~~   ** For Zone="PERIMETER_TOP_ZN_3 ZN".
   **   ~~~   ** Zone outside air per person rate not set in Design Specification Outdoor Air Object="OFFICE WHOLEBUILDING - MD OFFICE VENTILATION".
   ** Warning ** Controller:MechanicalVentilation="15 ZONE DOAS MECHANICAL VENTILATION CONTROLLER", Zone OA/person rate
   **   ~~~   ** For Zone="PERIMETER_TOP_ZN_4 ZN".
   **   ~~~   ** Zone outside air per person rate not set in Design Specification Outdoor Air Object="OFFICE WHOLEBUILDING - MD OFFICE VENTILATION".
   ** Warning ** In calculating the design coil UA for Coil:Cooling:Water 15 ZONE DOAS CLG COIL
   **   ~~~   ** the apparatus dew-point is below the coil design inlet water temperature;
   **   ~~~   ** the coil outlet design conditions will be changed to correct the problem.
   **   ~~~   ** The initial design conditions are: Tair,in = 36.0000
   **   ~~~   **                                    Wair,in = 1.519472E-002
   **   ~~~   **                                    Twater,in = 6.6667
   **   ~~~   **                                    Tair,out = 14.5196
   **   ~~~   **                                    Wair,out = 8.500000E-003
   **   ~~~   ** The revised design conditions are: Tair,out = 13.7164
   **   ~~~   **                                    Wair,out = 8.824456E-003
   ** Warning ** GetElectricEIRChillerInput: Chiller:Electric:EIR="NREL ZNE READY 2017 WATERCOOLED  ROTARY SCREW CHILLER 0 105TONS 0.6KW/TON"
   **   ~~~   ** Energy input ratio as a function of temperature curve output is not equal to 1.0 (+ or - 10%) at reference conditions.
   **   ~~~   ** Curve output at reference conditions = 1.205
   ** Warning ** Missing temperature setpoint for LeavingSetpointModulated mode Boiler named BOILER 639KBTU/HR 0.94 COMBUSTION EFF
   **   ~~~   **   A temperature setpoint is needed at the outlet node of a boiler in variable flow mode
   **   ~~~   **   use a Setpoint Manager to establish a setpoint at the boiler outlet node 
   **   ~~~   **   or use an EMS actuator to establish a setpoint at the boiler outlet node 
   **   ~~~   **   The overall loop setpoint will be assumed for Boiler. The simulation continues ... 
   ** Warning ** Output:Meter: invalid Key Name="DISTRICTCOOLING:FACILITY" - not found.
   ** Warning ** Output:Meter: invalid Key Name="DISTRICTHEATING:FACILITY" - not found.
   ** Warning ** Output:Meter:MeterFileOnly requested for "Electricity:Facility" (TimeStep), already on "Output:Meter". Will report to both eplusout.eso and eplusout.mtr
   ************* Testing Individual Branch Integrity
   ************* All Branches passed integrity testing
   ************* Testing Individual Supply Air Path Integrity
   ************* All Supply Air Paths passed integrity testing
   ************* Testing Individual Return Air Path Integrity
   ************* All Return Air Paths passed integrity testing
   ************* No node connection errors were found.
   ************* Beginning Simulation
   ** Warning ** Processing Monthly Tabular Reports: Variable names not valid for this simulation
   **   ~~~   ** ...use Output:Diagnostics,DisplayExtraWarnings; to show more details on individual variables.
   ** Warning ** CoolingTower:VariableSpeed "PROPELLER OR AXIAL VARIABLE SPEED FAN OPEN COOLING TOWER" - Tower range temperature is outside model boundaries at 2.32E-002.
   **   ~~~   **  ...Valid range = 1.11 to 11.11. Occurrence info = RUN PERIOD 1, 01/01 12:00 - 12:10
   **   ~~~   **  ...Tower range temperature passed to the model = 2.31777E-002
   **   ~~~   **  ...Range temperatures outside model boundaries may not adversely affect tower performance.
   **   ~~~   **  ...This is not an unexpected occurrence when simulating actual conditions.
   ** Warning ** CoolingTower:VariableSpeed "PROPELLER OR AXIAL VARIABLE SPEED FAN OPEN COOLING TOWER" - Tower approach temperature is outside model boundaries at 12.40.
   **   ~~~   **  ...Valid range = 1.11 to 11.11. Occurrence info = RUN PERIOD 1, 01/01 12:00 - 12:10
   **   ~~~   **  ...Tower approach temperature passed to the model = 12.39847
   **   ~~~   **  ...Approach temperatures outside model boundaries may not adversely affect tower performance.
   **   ~~~   **  ...This is not an unexpected occurrence when simulating actual conditions.
   ** Warning ** CoolingTower:VariableSpeed "PROPELLER OR AXIAL VARIABLE SPEED FAN OPEN COOLING TOWER" - Inlet air wet-bulb temperature is outside model boundaries at -2.01.
   **   ~~~   **  ...Valid range = -1.00 to 26.67. Occurrence info = RUN PERIOD 1, 01/11 07:55 - 07:60
   **   ~~~   **  ...Inlet air wet-bulb temperature passed to the model = -1.000000
   **   ~~~   **  ...Wet-bulb temperatures outside model boundaries may not adversely affect tower performance.
   ** Warning ** CoolingTower:VariableSpeed "PROPELLER OR AXIAL VARIABLE SPEED FAN OPEN COOLING TOWER" - Inlet air wet-bulb temperature is outside model boundaries at -1.71.
   **   ~~~   **  ...Valid range = -1.00 to 26.67. Occurrence info = RUN PERIOD 1, 01/11 08:00 - 08:02
   **   ~~~   **  ...Inlet air wet-bulb temperature passed to the model = -1.000000
   **   ~~~   **  ...Wet-bulb temperatures outside model boundaries may not adversely affect tower performance.
   ** Warning ** CoolingTower:VariableSpeed "PROPELLER OR AXIAL VARIABLE SPEED FAN OPEN COOLING TOWER" - Inlet air wet-bulb temperature is outside model boundaries at -1.71.
   **   ~~~   **  ...Valid range = -1.00 to 26.67. Occurrence info = RUN PERIOD 1, 01/11 08:02 - 08:04
   **   ~~~   **  ...Inlet air wet-bulb temperature passed to the model = -1.000000
   **   ~~~   **  ...Wet-bulb temperatures outside model boundaries may not adversely affect tower performance.
   ** Warning ** CoolingTower:VariableSpeed "PROPELLER OR AXIAL VARIABLE SPEED FAN OPEN COOLING TOWER" - Inlet air wet-bulb temperature is outside model boundaries at -1.71.
   **   ~~~   **  ...Valid range = -1.00 to 26.67. Occurrence info = RUN PERIOD 1, 01/11 08:04 - 08:06
   **   ~~~   **  ...Inlet air wet-bulb temperature passed to the model = -1.000000
   **   ~~~   **  ...Wet-bulb temperatures outside model boundaries may not adversely affect tower performance.
   ** Warning ** CoolingTower:VariableSpeed "PROPELLER OR AXIAL VARIABLE SPEED FAN OPEN COOLING TOWER" - Inlet air wet-bulb temperature is outside model boundaries at -1.71.
   **   ~~~   **  ...Valid range = -1.00 to 26.67. Occurrence info = RUN PERIOD 1, 01/11 08:06 - 08:08
   **   ~~~   **  ...Inlet air wet-bulb temperature passed to the model = -1.000000
   **   ~~~   **  ...Wet-bulb temperatures outside model boundaries may not adversely affect tower performance.
   ** Warning ** Part-load ratio cooling control failed in fan coil unit CORE_TOP ZN FCU
   **   ~~~   **   Bad part-load ratio limits
   **   ~~~   ** ..Part-load ratio set to 0 Environment=RUN PERIOD 1, at Simulation time=05/13 19:00 - 19:10
   ** Warning ** Part-load ratio cooling control failed in fan coil unit CORE_TOP ZN FCU
   **   ~~~   **   Iteration limit exceeded in calculating FCU part-load ratio 
   **   ~~~   ** Load Request = -1514, Final Capacity = -1509 Environment=RUN PERIOD 1, at Simulation time=12/13 21:30 - 21:40
   **   ~~~   ** Min part-load used during iterations = 0, Max part-load used during iterations = 1
   **   ~~~   **  Environment=RUN PERIOD 1, at Simulation time=12/13 21:30 - 21:40
   **   ~~~   ** Part-load ratio on last iteration = 0 Environment=RUN PERIOD 1, at Simulation time=12/13 21:30 - 21:40
   **   ~~~   ** ..Part-load ratio set to last iteration value  Environment=RUN PERIOD 1, at Simulation time=12/13 21:30 - 21:40
   ** Warning ** The resource referenced by LifeCycleCost:UsePriceEscalation= "U.S. AVG  COMMERCIAL-ELECTRICITY" has no energy cost. 
   **   ~~~   ** ... It is likely that the wrong resource is used. The resource should match the meter used in Utility:Tariff.
   ** Warning ** The resource referenced by LifeCycleCost:UsePriceEscalation= "U.S. AVG  COMMERCIAL-DISTILLATE OIL" has no energy cost. 
   **   ~~~   ** ... It is likely that the wrong resource is used. The resource should match the meter used in Utility:Tariff.
   ** Warning ** The resource referenced by LifeCycleCost:UsePriceEscalation= "U.S. AVG  COMMERCIAL-RESIDUAL OIL" has no energy cost. 
   **   ~~~   ** ... It is likely that the wrong resource is used. The resource should match the meter used in Utility:Tariff.
   ** Warning ** The resource referenced by LifeCycleCost:UsePriceEscalation= "U.S. AVG  COMMERCIAL-NATURAL GAS" has no energy cost. 
   **   ~~~   ** ... It is likely that the wrong resource is used. The resource should match the meter used in Utility:Tariff.
   ** Warning ** The resource referenced by LifeCycleCost:UsePriceEscalation= "U.S. AVG  COMMERCIAL-COAL" has no energy cost. 
   **   ~~~   ** ... It is likely that the wrong resource is used. The resource should match the meter used in Utility:Tariff.
   ************* Simulation Error Summary *************
   ************* There are 11 unused schedules in input.
   ************* There are 11 unused week schedules in input.
   ************* There are 25 unused day schedules in input.
   ************* Use Output:Diagnostics,DisplayUnusedSchedules; to see them.
   *************
   ************* ===== Recurring Error Summary =====
   ************* The following recurring error messages occurred.
   *************
   *************  ** Warning ** CoolingTower:VariableSpeed "PROPELLER OR AXIAL VARIABLE SPEED FAN OPEN COOLING TOWER" - Tower range temperature is out of range error continues...
   *************  **   ~~~   **   This error occurred 13899 total times;
   *************  **   ~~~   **   during Warmup 0 times;
   *************  **   ~~~   **   during Sizing 0 times.
   *************  **   ~~~   **   Max=1.111081  Min=2.004825E-005
   *************
   *************  ** Warning ** CoolingTower:VariableSpeed "PROPELLER OR AXIAL VARIABLE SPEED FAN OPEN COOLING TOWER" - Tower approach temperature is out of range error continues...
   *************  **   ~~~   **   This error occurred 6015 total times;
   *************  **   ~~~   **   during Warmup 0 times;
   *************  **   ~~~   **   during Sizing 0 times.
   *************  **   ~~~   **   Max=27.673498  Min=11.111112
   *************
   *************  ** Warning ** CoolingTower:VariableSpeed "PROPELLER OR AXIAL VARIABLE SPEED FAN OPEN COOLING TOWER" - Inlet air wet-bulb temperature is out of range error continues...
   *************  **   ~~~   **   This error occurred 234 total times;
   *************  **   ~~~   **   during Warmup 0 times;
   *************  **   ~~~   **   during Sizing 0 times.
   *************  **   ~~~   **   Max=27.05213  Min=-6.562387
   *************
   *************  ** Warning ** Part-load ratio cooling control failed in fan coil unit CORE_TOP ZN FCU
   *************  **   ~~~   **   This error occurred 1 total times;
   *************  **   ~~~   **   during Warmup 0 times;
   *************  **   ~~~   **   during Sizing 0 times.
   *************
   *************  ** Warning ** Part-load ratio cooling iteration limit exceeded in fan coil unit CORE_TOP ZN FCU
   *************  **   ~~~   **   This error occurred 1 total times;
   *************  **   ~~~   **   during Warmup 0 times;
   *************  **   ~~~   **   during Sizing 0 times.
   *************
   *************
   ************* ===== Final Error Summary =====
   ************* The following error categories occurred.  Consider correcting or noting.
   ************* Nominally Unused Constructions
   ************* ..The nominally unused constructions warning is provided to alert you to potential conditions that can cause
   ************* ..extra time during simulation. Each construction is calculated by the algorithm indicated in the HeatBalanceAlgorithm
   ************* ..object. You may remove the constructions indicated (when you use the DisplayExtraWarnings option).
   *************
   ************* EnergyPlus Warmup Error Summary. During Warmup: 0 Warning; 0 Severe Errors.
   ************* EnergyPlus Sizing Error Summary. During Sizing: 41 Warning; 0 Severe Errors.
   ************* EnergyPlus Completed Successfully-- 20227 Warning; 0 Severe Errors; Elapsed Time=00hr 01min 12.20sec
