Program Version,EnergyPlus, Version 9.1.0-08d2e308bb, YMD=2019.04.09 23:04
! <Version>, Version ID
 Version, 9.1
! <Timesteps per Hour>, #TimeSteps, Minutes per TimeStep {minutes}
 Timesteps per Hour,  6, 10
! <System Convergence Limits>, Minimum System TimeStep {minutes}, Max HVAC Iterations, Minimum Plant Iterations, Maximum Plant Iterations
 System Convergence Limits, 2, 25, 2, 8
! <Simulation Control>, Do Zone Sizing, Do System Sizing, Do Plant Sizing, Do Design Days, Do Weather Simulation, Do HVAC Sizing Simulation
 Simulation Control, Yes, Yes, Yes, No, Yes, No
! <Output Reporting Tolerances>, Tolerance for Time Heating Setpoint Not Met, Tolerance for Zone Cooling Setpoint Not Met Time
 Output Reporting Tolerances, 0.556, 0.556, 
! <Site:GroundTemperature:BuildingSurface>,Jan{C},Feb{C},Mar{C},Apr{C},May{C},Jun{C},Jul{C},Aug{C},Sep{C},Oct{C},Nov{C},Dec{C}
 Site:GroundTemperature:BuildingSurface,  20.49,  20.43,  20.44,  20.50,  20.59,  22.83,  23.24,  23.33,  23.36,  21.14,  20.78,  20.61
! <Site:GroundTemperature:FCfactorMethod>,Jan{C},Feb{C},Mar{C},Apr{C},May{C},Jun{C},Jul{C},Aug{C},Sep{C},Oct{C},Nov{C},Dec{C}
 Site:GroundTemperature:FCfactorMethod,  -1.89,  -3.06,  -0.99,   2.23,  10.68,  17.20,  21.60,  22.94,  20.66,  15.60,   8.83,   2.56
! <Site:GroundTemperature:Shallow>,Jan{C},Feb{C},Mar{C},Apr{C},May{C},Jun{C},Jul{C},Aug{C},Sep{C},Oct{C},Nov{C},Dec{C}
 Site:GroundTemperature:Shallow,  13.00,  13.00,  13.00,  13.00,  13.00,  13.00,  13.00,  13.00,  13.00,  13.00,  13.00,  13.00
! <Site:GroundTemperature:Deep>,Jan{C},Feb{C},Mar{C},Apr{C},May{C},Jun{C},Jul{C},Aug{C},Sep{C},Oct{C},Nov{C},Dec{C}
 Site:GroundTemperature:Deep,  16.00,  16.00,  16.00,  16.00,  16.00,  16.00,  16.00,  16.00,  16.00,  16.00,  16.00,  16.00
! <Site:GroundReflectance>,Jan{dimensionless},Feb{dimensionless},Mar{dimensionless},Apr{dimensionless},May{dimensionless},Jun{dimensionless},Jul{dimensionless},Aug{dimensionless},Sep{dimensionless},Oct{dimensionless},Nov{dimensionless},Dec{dimensionless}
 Site:GroundReflectance,  0.20,  0.20,  0.20,  0.20,  0.20,  0.20,  0.20,  0.20,  0.20,  0.20,  0.20,  0.20
! <Site:GroundReflectance:SnowModifier>, Normal, Daylighting {dimensionless}
 Site:GroundReflectance:SnowModifier,   1.000,   1.000
! <Site:GroundReflectance:Snow>,Jan{dimensionless},Feb{dimensionless},Mar{dimensionless},Apr{dimensionless},May{dimensionless},Jun{dimensionless},Jul{dimensionless},Aug{dimensionless},Sep{dimensionless},Oct{dimensionless},Nov{dimensionless},Dec{dimensionless}
 Site:GroundReflectance:Snow,  0.20,  0.20,  0.20,  0.20,  0.20,  0.20,  0.20,  0.20,  0.20,  0.20,  0.20,  0.20
! <Site:GroundReflectance:Snow:Daylighting>,Jan{dimensionless},Feb{dimensionless},Mar{dimensionless},Apr{dimensionless},May{dimensionless},Jun{dimensionless},Jul{dimensionless},Aug{dimensionless},Sep{dimensionless},Oct{dimensionless},Nov{dimensionless},Dec{dimensionless}
 Site:GroundReflectance:Snow:Daylighting,  0.20,  0.20,  0.20,  0.20,  0.20,  0.20,  0.20,  0.20,  0.20,  0.20,  0.20,  0.20
! <Environment:Weather Station>,Wind Sensor Height Above Ground {m},Wind Speed Profile Exponent {},Wind Speed Profile Boundary Layer Thickness {m},Air Temperature Sensor Height Above Ground {m},Wind Speed Modifier Coefficient-Internal,Temperature Modifier Coefficient-Internal
Environment:Weather Station,10.000,0.140,270.000,1.500,1.586,9.750E-003
! <Site:Location>, Location Name, Latitude {N+/S- Deg}, Longitude {E+/W- Deg},  Time Zone Number {GMT+/-}, Elevation {m},  Standard Pressure at Elevation {Pa}, Standard RhoAir at Elevation
Site:Location,Chicago Ohare Intl Ap IL USA TMY3 WMO#=725300,41.98,-87.92,-6.00,201.00,98934,1.1759
! <Site Water Mains Temperature Information>,Calculation Method{},Water Mains Temperature Schedule Name{},Annual Average Outdoor Air Temperature{C},Maximum Difference In Monthly Average Outdoor Air Temperatures{deltaC},Fixed Default Water Mains Temperature{C}
Site Water Mains Temperature Information,Correlation,NA,9.93,28.70,NA
! <Building Information>, Building Name,North Axis {deg},Terrain,  Loads Convergence Tolerance Value,Temperature Convergence Tolerance Value,  Solar Distribution,Maximum Number of Warmup Days,Minimum Number of Warmup Days
 Building Information,Medium Office Retail Mix ASHRAE 169-2006-5A,0.000,City,4.00000E-002,0.20000,FullInteriorAndExterior,25,6
! <Inside Convection Algorithm>, Algorithm {Simple | TARP | CeilingDiffuser | AdaptiveConvectionAlgorithm}
Inside Convection Algorithm,TARP
! <Outside Convection Algorithm>, Algorithm {SimpleCombined | TARP | MoWitt | DOE-2 | AdaptiveConvectionAlgorithm}
Outside Convection Algorithm,TARP
! <Sky Radiance Distribution>, Value {Anisotropic}
Sky Radiance Distribution,Anisotropic
! <Zone Air Solution Algorithm>, Value {ThirdOrderBackwardDifference | AnalyticalSolution | EulerMethod}
 Zone Air Solution Algorithm, ThirdOrderBackwardDifference
! <Zone Air Carbon Dioxide Balance Simulation>, Simulation {Yes/No}, Carbon Dioxide Concentration
 Zone Air Carbon Dioxide Balance Simulation, No,N/A
! <Zone Air Generic Contaminant Balance Simulation>, Simulation {Yes/No}, Generic Contaminant Concentration
 Zone Air Generic Contaminant Balance Simulation, No,N/A
! <Zone Air Mass Flow Balance Simulation>, Enforce Mass Balance, Adjust Zone Mixing, Adjust Zone Infiltration {AddInfiltration | AdjustInfiltration | None}, Infiltration Zones {MixingSourceZonesOnly | AllZones}
 Zone Air Mass Flow Balance Simulation, No,N/A,N/A,N/A
! <HVACSystemRootFindingAlgorithm>, Value {RegulaFalsi | Bisection | BisectionThenRegulaFalsi | RegulaFalsiThenBisection}
 HVACSystemRootFindingAlgorithm, RegulaFalsi
! <Environment:Site Atmospheric Variation>,Wind Speed Profile Exponent {},Wind Speed Profile Boundary Layer Thickness {m},Air Temperature Gradient Coefficient {K/m}
Environment:Site Atmospheric Variation,0.330,460.000,6.500000E-003
! <Surface Geometry>,Starting Corner,Vertex Input Direction,Coordinate System,Daylight Reference Point Coordinate System,Rectangular (Simple) Surface Coordinate System
 Surface Geometry,UpperLeftCorner,Counterclockwise,RelativeCoordinateSystem,RelativeCoordinateSystem,RelativeToZoneOrigin
! <Surface Heat Transfer Algorithm>, Value {CTF - ConductionTransferFunction | EMPD - MoisturePenetrationDepthConductionTransferFunction | CondFD - ConductionFiniteDifference | HAMT - CombinedHeatAndMoistureFiniteElement} - Description,Inside Surface Max Temperature Limit{C}, Surface Convection Coefficient Lower Limit {W/m2-K}, Surface Convection Coefficient Upper Limit {W/m2-K}
Surface Heat Transfer Algorithm, CTF - ConductionTransferFunction,200,0.10,1000.0
! <Shading Summary>, Number of Fixed Detached Shades, Number of Building Detached Shades, Number of Attached Shades
 Shading Summary,0,0,0
! <Zone Summary>, Number of Zones, Number of Zone Surfaces, Number of SubSurfaces
 Zone Summary,24,209,16
! <Zone Information>,Zone Name,North Axis {deg},Origin X-Coordinate {m},Origin Y-Coordinate {m},Origin Z-Coordinate {m},Centroid X-Coordinate {m},Centroid Y-Coordinate {m},Centroid Z-Coordinate {m},Type,Zone Multiplier,Zone List Multiplier,Minimum X {m},Maximum X {m},Minimum Y {m},Maximum Y {m},Minimum Z {m},Maximum Z {m},Ceiling Height {m},Volume {m3},Zone Inside Convection Algorithm {Simple-Detailed-CeilingDiffuser-TrombeWall},Zone Outside Convection Algorithm {Simple-Detailed-Tarp-MoWitt-DOE-2-BLAST}, Floor Area {m2},Exterior Gross Wall Area {m2},Exterior Net Wall Area {m2},Exterior Window Area {m2}, Number of Surfaces, Number of SubSurfaces, Number of Shading SubSurfaces,  Part of Total Building Area
 Zone Information, TZ_CORE_BOTTOM,0.0,0.00,0.00,4.57,24.96,16.64,5.94,1,1,1,4.57,45.34,4.57,28.70,4.57,7.32,2.74,2698.04,TARP,TARP,983.54,0.00,0.00,0.00,7,0,0,Yes
 Zone Information, TZ_CORE_GROUND,0.0,45.34,4.57,0.00,24.96,16.64,1.98,1,1,1,4.57,45.34,4.57,28.70,0.00,3.96,3.96,3897.17,TARP,TARP,983.54,0.00,0.00,0.00,6,0,0,Yes
 Zone Information, TZ_CORE_MID,0.0,0.00,0.00,4.57,24.96,16.64,9.91,1,1,1,4.57,45.34,4.57,28.70,8.53,11.28,2.74,2698.04,TARP,TARP,983.54,0.00,0.00,0.00,6,0,0,Yes
 Zone Information, TZ_CORE_TOP,0.0,0.00,0.00,4.57,24.96,16.64,13.87,1,1,1,4.57,45.34,4.57,28.70,12.50,15.24,2.74,2698.04,TARP,TARP,983.54,0.00,0.00,0.00,6,0,0,Yes
 Zone Information, TZ_FIRSTFLOOR_PLENUM,0.0,0.00,0.00,4.57,24.96,16.64,7.92,1,1,1,0.00,49.91,0.00,33.27,7.32,8.53,1.22,2024.76,TARP,TARP,1660.73,202.84,202.84,0.00,14,0,0,No
 Zone Information, TZ_GROUNDFLOOR_PLENUM,0.0,49.91,33.27,3.96,24.96,16.64,4.27,1,1,1,0.00,49.91,0.00,33.27,3.96,4.57,0.61,1012.38,TARP,TARP,1660.73,101.42,101.42,0.00,17,0,0,Yes
 Zone Information, TZ_MIDFLOOR_PLENUM,0.0,0.00,0.00,4.57,24.96,16.64,11.89,1,1,1,0.00,49.91,0.00,33.27,11.28,12.50,1.22,2024.76,TARP,TARP,1660.73,202.84,202.84,0.00,14,0,0,No
 Zone Information, TZ_PERIMETER_BOT_ZN_1,0.0,0.00,0.00,4.57,24.96,2.16,5.94,1,1,1,0.00,49.91,0.00,4.57,4.57,7.32,2.74,568.77,TARP,TARP,207.34,136.92,71.63,65.28,6,1,0,Yes
 Zone Information, TZ_PERIMETER_BOT_ZN_2,0.0,0.00,0.00,4.57,47.82,16.64,5.94,1,1,1,45.34,49.91,0.00,33.27,4.57,7.32,2.74,360.08,TARP,TARP,131.26,91.28,47.75,43.52,7,1,0,Yes
 Zone Information, TZ_PERIMETER_BOT_ZN_3,0.0,0.00,0.00,4.57,24.96,31.11,5.94,1,1,1,0.00,49.91,28.70,33.27,4.57,7.32,2.74,568.77,TARP,TARP,207.34,136.92,71.63,65.28,6,1,0,Yes
 Zone Information, TZ_PERIMETER_BOT_ZN_4,0.0,0.00,0.00,4.57,2.09,16.64,5.94,1,1,1,-2.05E-032,4.57,-1.72E-041,33.27,4.57,7.32,2.74,360.05,TARP,TARP,131.25,91.28,47.75,43.52,7,1,0,Yes
 Zone Information, TZ_PERIMETER_GROUND_ZN_1,0.0,49.91,0.00,0.00,24.96,2.15,1.98,1,1,1,0.00,49.91,0.00,4.57,0.00,3.96,3.96,821.56,TARP,TARP,207.34,197.77,39.55,158.21,6,1,0,Yes
 Zone Information, TZ_PERIMETER_GROUND_ZN_2,0.0,45.34,28.70,0.00,47.84,16.64,1.98,1,1,1,45.34,49.91,0.00,33.27,-9.92E-031,3.96,3.96,520.11,TARP,TARP,131.26,131.84,26.37,105.48,6,1,0,Yes
 Zone Information, TZ_PERIMETER_GROUND_ZN_3,0.0,0.00,33.27,0.00,24.96,31.13,1.98,1,1,1,0.00,49.91,28.70,33.27,0.00,3.96,3.96,821.56,TARP,TARP,207.34,197.77,39.55,158.21,6,1,0,Yes
 Zone Information, TZ_PERIMETER_GROUND_ZN_4,0.0,0.00,0.00,0.00,2.07,16.64,1.98,1,1,1,0.00,4.57,0.00,33.27,0.00,3.96,3.96,520.08,TARP,TARP,131.25,131.84,26.37,105.48,6,1,0,Yes
 Zone Information, TZ_PERIMETER_MID_ZN_1,0.0,0.00,0.00,4.57,24.96,2.16,9.91,1,1,1,0.00,49.91,0.00,4.57,8.53,11.28,2.74,568.77,TARP,TARP,207.34,136.92,71.63,65.28,6,1,0,Yes
 Zone Information, TZ_PERIMETER_MID_ZN_2,0.0,0.00,0.00,4.57,47.82,16.64,9.91,1,1,1,45.34,49.91,0.00,33.27,8.53,11.28,2.74,360.08,TARP,TARP,131.26,91.28,47.75,43.52,6,1,0,Yes
 Zone Information, TZ_PERIMETER_MID_ZN_3,0.0,0.00,0.00,4.57,24.96,31.11,9.91,1,1,1,0.00,49.91,28.70,33.27,8.53,11.28,2.74,568.77,TARP,TARP,207.34,136.92,71.63,65.28,6,1,0,Yes
 Zone Information, TZ_PERIMETER_MID_ZN_4,0.0,0.00,0.00,4.57,2.09,16.64,9.91,1,1,1,0.00,4.57,0.00,33.27,8.53,11.28,2.74,360.05,TARP,TARP,131.25,91.28,47.75,43.52,6,1,0,Yes
 Zone Information, TZ_PERIMETER_TOP_ZN_1,0.0,0.00,0.00,4.57,24.96,2.16,13.87,1,1,1,0.00,49.91,0.00,4.57,12.50,15.24,2.74,568.77,TARP,TARP,207.34,136.92,71.63,65.28,6,1,0,Yes
 Zone Information, TZ_PERIMETER_TOP_ZN_2,0.0,0.00,0.00,4.57,47.82,16.64,13.87,1,1,1,45.34,49.91,0.00,33.27,12.50,15.24,2.74,360.08,TARP,TARP,131.26,91.28,47.75,43.52,6,1,0,Yes
 Zone Information, TZ_PERIMETER_TOP_ZN_3,0.0,0.00,0.00,4.57,24.96,31.11,13.87,1,1,1,0.00,49.91,28.70,33.27,12.50,15.24,2.74,568.77,TARP,TARP,207.34,136.92,71.63,65.28,6,1,0,Yes
 Zone Information, TZ_PERIMETER_TOP_ZN_4,0.0,0.00,0.00,4.57,2.09,16.64,13.87,1,1,1,0.00,4.57,0.00,33.27,12.50,15.24,2.74,360.05,TARP,TARP,131.25,91.28,47.75,43.52,6,1,0,Yes
 Zone Information, TZ_TOPFLOOR_PLENUM,0.0,0.00,0.00,4.57,24.96,16.64,15.85,1,1,1,0.00,49.91,0.00,33.27,15.24,16.46,1.22,2024.76,TARP,TARP,1660.73,202.84,202.84,0.00,10,0,0,No
! <Zone Internal Gains Nominal>,Zone Name, Floor Area {m2},# Occupants,Area per Occupant {m2/person},Occupant per Area {person/m2},Interior Lighting {W/m2},Electric Load {W/m2},Gas Load {W/m2},Other Load {W/m2},Hot Water Eq {W/m2},Steam Equipment {W/m2},Sum Loads per Area {W/m2},Outdoor Controlled Baseboard Heat
 Zone Internal Gains Nominal, TZ_CORE_BOTTOM,983.54,52.9,18.581,5.382E-002,8.826,40.849,0.000,0.000,0.000,0.000,49.676,No
 Zone Internal Gains Nominal, TZ_CORE_GROUND,983.54,158.8,6.194,0.161,18.083,2.368,0.000,0.000,0.000,0.000,20.451,No
 Zone Internal Gains Nominal, TZ_CORE_MID,983.54,52.9,18.581,5.382E-002,8.826,8.073,0.000,0.000,0.000,0.000,16.899,No
 Zone Internal Gains Nominal, TZ_CORE_TOP,983.54,52.9,18.581,5.382E-002,8.826,8.073,0.000,0.000,0.000,0.000,16.899,No
 Zone Internal Gains Nominal, TZ_FIRSTFLOOR_PLENUM,1660.73,0.0,N/A,0.000,0.000,0.000,0.000,0.000,0.000,0.000,0.000,No
 Zone Internal Gains Nominal, TZ_GROUNDFLOOR_PLENUM,1660.73,0.0,N/A,0.000,0.000,0.000,0.000,0.000,0.000,0.000,0.000,No
 Zone Internal Gains Nominal, TZ_MIDFLOOR_PLENUM,1660.73,0.0,N/A,0.000,0.000,0.000,0.000,0.000,0.000,0.000,0.000,No
 Zone Internal Gains Nominal, TZ_PERIMETER_BOT_ZN_1,207.34,11.2,18.581,5.382E-002,8.826,8.073,0.000,0.000,0.000,0.000,16.899,No
 Zone Internal Gains Nominal, TZ_PERIMETER_BOT_ZN_2,131.26,7.1,18.581,5.382E-002,8.826,8.073,0.000,0.000,0.000,0.000,16.899,No
 Zone Internal Gains Nominal, TZ_PERIMETER_BOT_ZN_3,207.34,11.2,18.581,5.382E-002,8.826,8.073,0.000,0.000,0.000,0.000,16.899,No
 Zone Internal Gains Nominal, TZ_PERIMETER_BOT_ZN_4,131.25,7.1,18.581,5.382E-002,8.826,8.073,0.000,0.000,0.000,0.000,16.899,No
 Zone Internal Gains Nominal, TZ_PERIMETER_GROUND_ZN_1,207.34,33.5,6.194,0.161,18.083,2.368,0.000,0.000,0.000,0.000,20.451,No
 Zone Internal Gains Nominal, TZ_PERIMETER_GROUND_ZN_2,131.26,21.2,6.194,0.161,18.083,2.368,0.000,0.000,0.000,0.000,20.451,No
 Zone Internal Gains Nominal, TZ_PERIMETER_GROUND_ZN_3,207.34,33.5,6.194,0.161,18.083,2.368,0.000,0.000,0.000,0.000,20.451,No
 Zone Internal Gains Nominal, TZ_PERIMETER_GROUND_ZN_4,131.25,21.2,6.194,0.161,18.083,2.368,0.000,0.000,0.000,0.000,20.451,No
 Zone Internal Gains Nominal, TZ_PERIMETER_MID_ZN_1,207.34,11.2,18.581,5.382E-002,8.826,8.073,0.000,0.000,0.000,0.000,16.899,No
 Zone Internal Gains Nominal, TZ_PERIMETER_MID_ZN_2,131.26,7.1,18.581,5.382E-002,8.826,8.073,0.000,0.000,0.000,0.000,16.899,No
 Zone Internal Gains Nominal, TZ_PERIMETER_MID_ZN_3,207.34,11.2,18.581,5.382E-002,8.826,8.073,0.000,0.000,0.000,0.000,16.899,No
 Zone Internal Gains Nominal, TZ_PERIMETER_MID_ZN_4,131.25,7.1,18.581,5.382E-002,8.826,8.073,0.000,0.000,0.000,0.000,16.899,No
 Zone Internal Gains Nominal, TZ_PERIMETER_TOP_ZN_1,207.34,11.2,18.581,5.382E-002,8.826,8.073,0.000,0.000,0.000,0.000,16.899,No
 Zone Internal Gains Nominal, TZ_PERIMETER_TOP_ZN_2,131.26,7.1,18.581,5.382E-002,8.826,8.073,0.000,0.000,0.000,0.000,16.899,No
 Zone Internal Gains Nominal, TZ_PERIMETER_TOP_ZN_3,207.34,11.2,18.581,5.382E-002,8.826,8.073,0.000,0.000,0.000,0.000,16.899,No
 Zone Internal Gains Nominal, TZ_PERIMETER_TOP_ZN_4,131.25,7.1,18.581,5.382E-002,8.826,8.073,0.000,0.000,0.000,0.000,16.899,No
 Zone Internal Gains Nominal, TZ_TOPFLOOR_PLENUM,1660.73,0.0,N/A,0.000,0.000,0.000,0.000,0.000,0.000,0.000,0.000,No
! <People Internal Gains Nominal>,Name,Schedule Name,Zone Name,Zone Floor Area {m2},# Zone Occupants,Number of People {},People/Floor Area {person/m2},Floor Area per person {m2/person},Fraction Radiant,Fraction Convected,Sensible Fraction Calculation,Activity level,ASHRAE 55 Warnings,Carbon Dioxide Generation Rate,Nominal Minimum Number of People,Nominal Maximum Number of People
 People Internal Gains Nominal, TZ_CORE_GROUND 90.1-2010 - RETAIL - RETAIL PEOPLE,RETAIL BLDG OCC,TZ_CORE_GROUND,983.54,158.8,158.8,0.161,6.194,0.300,0.700,AutoCalculate,RETAIL ACTIVITY,No,3.8200E-008,0,159
 People Internal Gains Nominal, TZ_PERIMETER_GROUND_ZN_1 90.1-2010 - RETAIL - RETAIL PEOPLE,RETAIL BLDG OCC,TZ_PERIMETER_GROUND_ZN_1,207.34,33.5,33.5,0.161,6.194,0.300,0.700,AutoCalculate,RETAIL ACTIVITY,No,3.8200E-008,0,33
 People Internal Gains Nominal, TZ_PERIMETER_GROUND_ZN_2 90.1-2010 - RETAIL - RETAIL PEOPLE,RETAIL BLDG OCC,TZ_PERIMETER_GROUND_ZN_2,131.26,21.2,21.2,0.161,6.194,0.300,0.700,AutoCalculate,RETAIL ACTIVITY,No,3.8200E-008,0,21
 People Internal Gains Nominal, TZ_PERIMETER_GROUND_ZN_3 90.1-2010 - RETAIL - RETAIL PEOPLE,RETAIL BLDG OCC,TZ_PERIMETER_GROUND_ZN_3,207.34,33.5,33.5,0.161,6.194,0.300,0.700,AutoCalculate,RETAIL ACTIVITY,No,3.8200E-008,0,33
 People Internal Gains Nominal, TZ_PERIMETER_GROUND_ZN_4 90.1-2010 - RETAIL - RETAIL PEOPLE,RETAIL BLDG OCC,TZ_PERIMETER_GROUND_ZN_4,131.25,21.2,21.2,0.161,6.194,0.300,0.700,AutoCalculate,RETAIL ACTIVITY,No,3.8200E-008,0,21
 People Internal Gains Nominal, TZ_CORE_BOTTOM OFFICE WHOLEBUILDING - MD OFFICE PEOPLE,OFFICEMEDIUM BLDG_OCC_SCH,TZ_CORE_BOTTOM,983.54,52.9,52.9,5.382E-002,18.581,0.300,0.700,AutoCalculate,OFFICEMEDIUM ACTIVITY_SCH,No,3.8200E-008,0,53
 People Internal Gains Nominal, TZ_CORE_MID OFFICE WHOLEBUILDING - MD OFFICE PEOPLE,OFFICEMEDIUM BLDG_OCC_SCH,TZ_CORE_MID,983.54,52.9,52.9,5.382E-002,18.581,0.300,0.700,AutoCalculate,OFFICEMEDIUM ACTIVITY_SCH,No,3.8200E-008,0,53
 People Internal Gains Nominal, TZ_CORE_TOP OFFICE WHOLEBUILDING - MD OFFICE PEOPLE,OFFICEMEDIUM BLDG_OCC_SCH,TZ_CORE_TOP,983.54,52.9,52.9,5.382E-002,18.581,0.300,0.700,AutoCalculate,OFFICEMEDIUM ACTIVITY_SCH,No,3.8200E-008,0,53
 People Internal Gains Nominal, TZ_PERIMETER_BOT_ZN_1 OFFICE WHOLEBUILDING - MD OFFICE PEOPLE,OFFICEMEDIUM BLDG_OCC_SCH,TZ_PERIMETER_BOT_ZN_1,207.34,11.2,11.2,5.382E-002,18.581,0.300,0.700,AutoCalculate,OFFICEMEDIUM ACTIVITY_SCH,No,3.8200E-008,0,11
 People Internal Gains Nominal, TZ_PERIMETER_BOT_ZN_2 OFFICE WHOLEBUILDING - MD OFFICE PEOPLE,OFFICEMEDIUM BLDG_OCC_SCH,TZ_PERIMETER_BOT_ZN_2,131.26,7.1,7.1,5.382E-002,18.581,0.300,0.700,AutoCalculate,OFFICEMEDIUM ACTIVITY_SCH,No,3.8200E-008,0,7
 People Internal Gains Nominal, TZ_PERIMETER_BOT_ZN_3 OFFICE WHOLEBUILDING - MD OFFICE PEOPLE,OFFICEMEDIUM BLDG_OCC_SCH,TZ_PERIMETER_BOT_ZN_3,207.34,11.2,11.2,5.382E-002,18.581,0.300,0.700,AutoCalculate,OFFICEMEDIUM ACTIVITY_SCH,No,3.8200E-008,0,11
 People Internal Gains Nominal, TZ_PERIMETER_BOT_ZN_4 OFFICE WHOLEBUILDING - MD OFFICE PEOPLE,OFFICEMEDIUM BLDG_OCC_SCH,TZ_PERIMETER_BOT_ZN_4,131.25,7.1,7.1,5.382E-002,18.581,0.300,0.700,AutoCalculate,OFFICEMEDIUM ACTIVITY_SCH,No,3.8200E-008,0,7
 People Internal Gains Nominal, TZ_PERIMETER_MID_ZN_1 OFFICE WHOLEBUILDING - MD OFFICE PEOPLE,OFFICEMEDIUM BLDG_OCC_SCH,TZ_PERIMETER_MID_ZN_1,207.34,11.2,11.2,5.382E-002,18.581,0.300,0.700,AutoCalculate,OFFICEMEDIUM ACTIVITY_SCH,No,3.8200E-008,0,11
 People Internal Gains Nominal, TZ_PERIMETER_MID_ZN_2 OFFICE WHOLEBUILDING - MD OFFICE PEOPLE,OFFICEMEDIUM BLDG_OCC_SCH,TZ_PERIMETER_MID_ZN_2,131.26,7.1,7.1,5.382E-002,18.581,0.300,0.700,AutoCalculate,OFFICEMEDIUM ACTIVITY_SCH,No,3.8200E-008,0,7
 People Internal Gains Nominal, TZ_PERIMETER_MID_ZN_3 OFFICE WHOLEBUILDING - MD OFFICE PEOPLE,OFFICEMEDIUM BLDG_OCC_SCH,TZ_PERIMETER_MID_ZN_3,207.34,11.2,11.2,5.382E-002,18.581,0.300,0.700,AutoCalculate,OFFICEMEDIUM ACTIVITY_SCH,No,3.8200E-008,0,11
 People Internal Gains Nominal, TZ_PERIMETER_MID_ZN_4 OFFICE WHOLEBUILDING - MD OFFICE PEOPLE,OFFICEMEDIUM BLDG_OCC_SCH,TZ_PERIMETER_MID_ZN_4,131.25,7.1,7.1,5.382E-002,18.581,0.300,0.700,AutoCalculate,OFFICEMEDIUM ACTIVITY_SCH,No,3.8200E-008,0,7
 People Internal Gains Nominal, TZ_PERIMETER_TOP_ZN_1 OFFICE WHOLEBUILDING - MD OFFICE PEOPLE,OFFICEMEDIUM BLDG_OCC_SCH,TZ_PERIMETER_TOP_ZN_1,207.34,11.2,11.2,5.382E-002,18.581,0.300,0.700,AutoCalculate,OFFICEMEDIUM ACTIVITY_SCH,No,3.8200E-008,0,11
 People Internal Gains Nominal, TZ_PERIMETER_TOP_ZN_2 OFFICE WHOLEBUILDING - MD OFFICE PEOPLE,OFFICEMEDIUM BLDG_OCC_SCH,TZ_PERIMETER_TOP_ZN_2,131.26,7.1,7.1,5.382E-002,18.581,0.300,0.700,AutoCalculate,OFFICEMEDIUM ACTIVITY_SCH,No,3.8200E-008,0,7
 People Internal Gains Nominal, TZ_PERIMETER_TOP_ZN_3 OFFICE WHOLEBUILDING - MD OFFICE PEOPLE,OFFICEMEDIUM BLDG_OCC_SCH,TZ_PERIMETER_TOP_ZN_3,207.34,11.2,11.2,5.382E-002,18.581,0.300,0.700,AutoCalculate,OFFICEMEDIUM ACTIVITY_SCH,No,3.8200E-008,0,11
 People Internal Gains Nominal, TZ_PERIMETER_TOP_ZN_4 OFFICE WHOLEBUILDING - MD OFFICE PEOPLE,OFFICEMEDIUM BLDG_OCC_SCH,TZ_PERIMETER_TOP_ZN_4,131.25,7.1,7.1,5.382E-002,18.581,0.300,0.700,AutoCalculate,OFFICEMEDIUM ACTIVITY_SCH,No,3.8200E-008,0,7
! <Lights Internal Gains Nominal>,Name,Schedule Name,Zone Name,Zone Floor Area {m2},# Zone Occupants,Lighting Level {W},Lights/Floor Area {W/m2},Lights per person {W/person},Fraction Return Air,Fraction Radiant,Fraction Short Wave,Fraction Convected,Fraction Replaceable,End-Use Category,Nominal Minimum Lighting Level {W},Nominal Maximum Lighting Level {W}
 Lights Internal Gains Nominal, TZ_CORE_GROUND 90.1-2010 - RETAIL - RETAIL LIGHTS,RETAIL BLDG LIGHT,TZ_CORE_GROUND,983.54,158.8,17785.655,18.083,112.000,0.000,0.000,0.000,1.000,1.000,General,0.000,17785.655
 Lights Internal Gains Nominal, TZ_PERIMETER_GROUND_ZN_1 90.1-2010 - RETAIL - RETAIL LIGHTS,RETAIL BLDG LIGHT,TZ_PERIMETER_GROUND_ZN_1,207.34,33.5,3749.372,18.083,112.000,0.000,0.000,0.000,1.000,1.000,General,0.000,3749.372
 Lights Internal Gains Nominal, TZ_PERIMETER_GROUND_ZN_2 90.1-2010 - RETAIL - RETAIL LIGHTS,RETAIL BLDG LIGHT,TZ_PERIMETER_GROUND_ZN_2,131.26,21.2,2373.663,18.083,112.000,0.000,0.000,0.000,1.000,1.000,General,0.000,2373.663
 Lights Internal Gains Nominal, TZ_PERIMETER_GROUND_ZN_3 90.1-2010 - RETAIL - RETAIL LIGHTS,RETAIL BLDG LIGHT,TZ_PERIMETER_GROUND_ZN_3,207.34,33.5,3749.372,18.083,112.000,0.000,0.000,0.000,1.000,1.000,General,0.000,3749.372
 Lights Internal Gains Nominal, TZ_PERIMETER_GROUND_ZN_4 90.1-2010 - RETAIL - RETAIL LIGHTS,RETAIL BLDG LIGHT,TZ_PERIMETER_GROUND_ZN_4,131.25,21.2,2373.507,18.083,112.000,0.000,0.000,0.000,1.000,1.000,General,0.000,2373.507
 Lights Internal Gains Nominal, TZ_CORE_BOTTOM OFFICE WHOLEBUILDING - MD OFFICE LIGHTS,OFFICEMEDIUM BLDG_LIGHT_SCH_2013,TZ_CORE_BOTTOM,983.54,52.9,8681.094,8.826,164.000,0.000,0.700,0.200,0.100,1.000,General,0.000,8681.094
 Lights Internal Gains Nominal, TZ_CORE_MID OFFICE WHOLEBUILDING - MD OFFICE LIGHTS,OFFICEMEDIUM BLDG_LIGHT_SCH_2013,TZ_CORE_MID,983.54,52.9,8681.094,8.826,164.000,0.000,0.700,0.200,0.100,1.000,General,0.000,8681.094
 Lights Internal Gains Nominal, TZ_CORE_TOP OFFICE WHOLEBUILDING - MD OFFICE LIGHTS,OFFICEMEDIUM BLDG_LIGHT_SCH_2013,TZ_CORE_TOP,983.54,52.9,8681.094,8.826,164.000,0.000,0.700,0.200,0.100,1.000,General,0.000,8681.094
 Lights Internal Gains Nominal, TZ_PERIMETER_BOT_ZN_1 OFFICE WHOLEBUILDING - MD OFFICE LIGHTS,OFFICEMEDIUM BLDG_LIGHT_SCH_2013,TZ_PERIMETER_BOT_ZN_1,207.34,11.2,1830.051,8.826,164.000,0.000,0.700,0.200,0.100,1.000,General,0.000,1830.051
 Lights Internal Gains Nominal, TZ_PERIMETER_BOT_ZN_2 OFFICE WHOLEBUILDING - MD OFFICE LIGHTS,OFFICEMEDIUM BLDG_LIGHT_SCH_2013,TZ_PERIMETER_BOT_ZN_2,131.26,7.1,1158.573,8.826,164.000,0.000,0.700,0.200,0.100,1.000,General,0.000,1158.573
 Lights Internal Gains Nominal, TZ_PERIMETER_BOT_ZN_3 OFFICE WHOLEBUILDING - MD OFFICE LIGHTS,OFFICEMEDIUM BLDG_LIGHT_SCH_2013,TZ_PERIMETER_BOT_ZN_3,207.34,11.2,1830.051,8.826,164.000,0.000,0.700,0.200,0.100,1.000,General,0.000,1830.051
 Lights Internal Gains Nominal, TZ_PERIMETER_BOT_ZN_4 OFFICE WHOLEBUILDING - MD OFFICE LIGHTS,OFFICEMEDIUM BLDG_LIGHT_SCH_2013,TZ_PERIMETER_BOT_ZN_4,131.25,7.1,1158.497,8.826,164.000,0.000,0.700,0.200,0.100,1.000,General,0.000,1158.497
 Lights Internal Gains Nominal, TZ_PERIMETER_MID_ZN_1 OFFICE WHOLEBUILDING - MD OFFICE LIGHTS,OFFICEMEDIUM BLDG_LIGHT_SCH_2013,TZ_PERIMETER_MID_ZN_1,207.34,11.2,1830.051,8.826,164.000,0.000,0.700,0.200,0.100,1.000,General,0.000,1830.051
 Lights Internal Gains Nominal, TZ_PERIMETER_MID_ZN_2 OFFICE WHOLEBUILDING - MD OFFICE LIGHTS,OFFICEMEDIUM BLDG_LIGHT_SCH_2013,TZ_PERIMETER_MID_ZN_2,131.26,7.1,1158.573,8.826,164.000,0.000,0.700,0.200,0.100,1.000,General,0.000,1158.573
 Lights Internal Gains Nominal, TZ_PERIMETER_MID_ZN_3 OFFICE WHOLEBUILDING - MD OFFICE LIGHTS,OFFICEMEDIUM BLDG_LIGHT_SCH_2013,TZ_PERIMETER_MID_ZN_3,207.34,11.2,1830.051,8.826,164.000,0.000,0.700,0.200,0.100,1.000,General,0.000,1830.051
 Lights Internal Gains Nominal, TZ_PERIMETER_MID_ZN_4 OFFICE WHOLEBUILDING - MD OFFICE LIGHTS,OFFICEMEDIUM BLDG_LIGHT_SCH_2013,TZ_PERIMETER_MID_ZN_4,131.25,7.1,1158.497,8.826,164.000,0.000,0.700,0.200,0.100,1.000,General,0.000,1158.497
 Lights Internal Gains Nominal, TZ_PERIMETER_TOP_ZN_1 OFFICE WHOLEBUILDING - MD OFFICE LIGHTS,OFFICEMEDIUM BLDG_LIGHT_SCH_2013,TZ_PERIMETER_TOP_ZN_1,207.34,11.2,1830.051,8.826,164.000,0.000,0.700,0.200,0.100,1.000,General,0.000,1830.051
 Lights Internal Gains Nominal, TZ_PERIMETER_TOP_ZN_2 OFFICE WHOLEBUILDING - MD OFFICE LIGHTS,OFFICEMEDIUM BLDG_LIGHT_SCH_2013,TZ_PERIMETER_TOP_ZN_2,131.26,7.1,1158.573,8.826,164.000,0.000,0.700,0.200,0.100,1.000,General,0.000,1158.573
 Lights Internal Gains Nominal, TZ_PERIMETER_TOP_ZN_3 OFFICE WHOLEBUILDING - MD OFFICE LIGHTS,OFFICEMEDIUM BLDG_LIGHT_SCH_2013,TZ_PERIMETER_TOP_ZN_3,207.34,11.2,1830.051,8.826,164.000,0.000,0.700,0.200,0.100,1.000,General,0.000,1830.051
 Lights Internal Gains Nominal, TZ_PERIMETER_TOP_ZN_4 OFFICE WHOLEBUILDING - MD OFFICE LIGHTS,OFFICEMEDIUM BLDG_LIGHT_SCH_2013,TZ_PERIMETER_TOP_ZN_4,131.25,7.1,1158.497,8.826,164.000,0.000,0.700,0.200,0.100,1.000,General,0.000,1158.497
! <ElectricEquipment Internal Gains Nominal>,Name,Schedule Name,Zone Name,Zone Floor Area {m2},# Zone Occupants,Equipment Level {W},Equipment/Floor Area {W/m2},Equipment per person {W/person},Fraction Latent,Fraction Radiant,Fraction Lost,Fraction Convected,End-Use SubCategory,Nominal Minimum Equipment Level {W},Nominal Maximum Equipment Level {W}
 ElectricEquipment Internal Gains Nominal, 2 ELEVATOR FANS,OFFICEMEDIUM ELEV_LIGHT_FAN_SCH_ADD_DF,TZ_CORE_BOTTOM,983.54,52.9,61.915,6.295E-002,1.170,0.000,0.500,0.000,0.500,General,0.000,42.721
 ElectricEquipment Internal Gains Nominal, 2 ELEVATOR LIFT MOTORS,OFFICEMEDIUM BLDG_ELEVATORS,TZ_CORE_BOTTOM,983.54,52.9,32110.000,32.647,606.610,0.000,0.500,0.000,0.500,General,0.000,22155.900
 ElectricEquipment Internal Gains Nominal, 2 ELEVATOR LIGHTS,OFFICEMEDIUM ELEV_LIGHT_FAN_SCH_ADD_DF,TZ_CORE_BOTTOM,983.54,52.9,64.697,6.578E-002,1.222,0.000,0.500,0.000,0.500,General,0.000,44.641
 ElectricEquipment Internal Gains Nominal, TZ_CORE_GROUND 90.1-2010 - RETAIL - RETAIL ELECTRIC EQUIPMENT,RETAIL BLDG EQUIP,TZ_CORE_GROUND,983.54,158.8,2329.075,2.368,14.667,0.000,0.000,0.000,1.000,General,0.000,2329.075
 ElectricEquipment Internal Gains Nominal, TZ_PERIMETER_GROUND_ZN_1 90.1-2010 - RETAIL - RETAIL ELECTRIC EQUIPMENT,RETAIL BLDG EQUIP,TZ_PERIMETER_GROUND_ZN_1,207.34,33.5,490.989,2.368,14.667,0.000,0.000,0.000,1.000,General,0.000,490.989
 ElectricEquipment Internal Gains Nominal, TZ_PERIMETER_GROUND_ZN_2 90.1-2010 - RETAIL - RETAIL ELECTRIC EQUIPMENT,RETAIL BLDG EQUIP,TZ_PERIMETER_GROUND_ZN_2,131.26,21.2,310.837,2.368,14.667,0.000,0.000,0.000,1.000,General,0.000,310.837
 ElectricEquipment Internal Gains Nominal, TZ_PERIMETER_GROUND_ZN_3 90.1-2010 - RETAIL - RETAIL ELECTRIC EQUIPMENT,RETAIL BLDG EQUIP,TZ_PERIMETER_GROUND_ZN_3,207.34,33.5,490.989,2.368,14.667,0.000,0.000,0.000,1.000,General,0.000,490.989
 ElectricEquipment Internal Gains Nominal, TZ_PERIMETER_GROUND_ZN_4 90.1-2010 - RETAIL - RETAIL ELECTRIC EQUIPMENT,RETAIL BLDG EQUIP,TZ_PERIMETER_GROUND_ZN_4,131.25,21.2,310.817,2.368,14.667,0.000,0.000,0.000,1.000,General,0.000,310.817
 ElectricEquipment Internal Gains Nominal, TZ_CORE_BOTTOM OFFICE WHOLEBUILDING - MD OFFICE ELEC EQUIP,OFFICEMEDIUM BLDG_EQUIP_SCH_2013,TZ_CORE_BOTTOM,983.54,52.9,7940.025,8.073,150.000,0.000,0.500,0.000,0.500,General,0.000,7940.025
 ElectricEquipment Internal Gains Nominal, TZ_CORE_MID OFFICE WHOLEBUILDING - MD OFFICE ELEC EQUIP,OFFICEMEDIUM BLDG_EQUIP_SCH_2013,TZ_CORE_MID,983.54,52.9,7940.025,8.073,150.000,0.000,0.500,0.000,0.500,General,0.000,7940.025
 ElectricEquipment Internal Gains Nominal, TZ_CORE_TOP OFFICE WHOLEBUILDING - MD OFFICE ELEC EQUIP,OFFICEMEDIUM BLDG_EQUIP_SCH_2013,TZ_CORE_TOP,983.54,52.9,7940.025,8.073,150.000,0.000,0.500,0.000,0.500,General,0.000,7940.025
 ElectricEquipment Internal Gains Nominal, TZ_PERIMETER_BOT_ZN_1 OFFICE WHOLEBUILDING - MD OFFICE ELEC EQUIP,OFFICEMEDIUM BLDG_EQUIP_SCH_2013,TZ_PERIMETER_BOT_ZN_1,207.34,11.2,1673.827,8.073,150.000,0.000,0.500,0.000,0.500,General,0.000,1673.827
 ElectricEquipment Internal Gains Nominal, TZ_PERIMETER_BOT_ZN_2 OFFICE WHOLEBUILDING - MD OFFICE ELEC EQUIP,OFFICEMEDIUM BLDG_EQUIP_SCH_2013,TZ_PERIMETER_BOT_ZN_2,131.26,7.1,1059.671,8.073,150.000,0.000,0.500,0.000,0.500,General,0.000,1059.671
 ElectricEquipment Internal Gains Nominal, TZ_PERIMETER_BOT_ZN_3 OFFICE WHOLEBUILDING - MD OFFICE ELEC EQUIP,OFFICEMEDIUM BLDG_EQUIP_SCH_2013,TZ_PERIMETER_BOT_ZN_3,207.34,11.2,1673.827,8.073,150.000,0.000,0.500,0.000,0.500,General,0.000,1673.827
 ElectricEquipment Internal Gains Nominal, TZ_PERIMETER_BOT_ZN_4 OFFICE WHOLEBUILDING - MD OFFICE ELEC EQUIP,OFFICEMEDIUM BLDG_EQUIP_SCH_2013,TZ_PERIMETER_BOT_ZN_4,131.25,7.1,1059.601,8.073,150.000,0.000,0.500,0.000,0.500,General,0.000,1059.601
 ElectricEquipment Internal Gains Nominal, TZ_PERIMETER_MID_ZN_1 OFFICE WHOLEBUILDING - MD OFFICE ELEC EQUIP,OFFICEMEDIUM BLDG_EQUIP_SCH_2013,TZ_PERIMETER_MID_ZN_1,207.34,11.2,1673.827,8.073,150.000,0.000,0.500,0.000,0.500,General,0.000,1673.827
 ElectricEquipment Internal Gains Nominal, TZ_PERIMETER_MID_ZN_2 OFFICE WHOLEBUILDING - MD OFFICE ELEC EQUIP,OFFICEMEDIUM BLDG_EQUIP_SCH_2013,TZ_PERIMETER_MID_ZN_2,131.26,7.1,1059.671,8.073,150.000,0.000,0.500,0.000,0.500,General,0.000,1059.671
 ElectricEquipment Internal Gains Nominal, TZ_PERIMETER_MID_ZN_3 OFFICE WHOLEBUILDING - MD OFFICE ELEC EQUIP,OFFICEMEDIUM BLDG_EQUIP_SCH_2013,TZ_PERIMETER_MID_ZN_3,207.34,11.2,1673.827,8.073,150.000,0.000,0.500,0.000,0.500,General,0.000,1673.827
 ElectricEquipment Internal Gains Nominal, TZ_PERIMETER_MID_ZN_4 OFFICE WHOLEBUILDING - MD OFFICE ELEC EQUIP,OFFICEMEDIUM BLDG_EQUIP_SCH_2013,TZ_PERIMETER_MID_ZN_4,131.25,7.1,1059.601,8.073,150.000,0.000,0.500,0.000,0.500,General,0.000,1059.601
 ElectricEquipment Internal Gains Nominal, TZ_PERIMETER_TOP_ZN_1 OFFICE WHOLEBUILDING - MD OFFICE ELEC EQUIP,OFFICEMEDIUM BLDG_EQUIP_SCH_2013,TZ_PERIMETER_TOP_ZN_1,207.34,11.2,1673.827,8.073,150.000,0.000,0.500,0.000,0.500,General,0.000,1673.827
 ElectricEquipment Internal Gains Nominal, TZ_PERIMETER_TOP_ZN_2 OFFICE WHOLEBUILDING - MD OFFICE ELEC EQUIP,OFFICEMEDIUM BLDG_EQUIP_SCH_2013,TZ_PERIMETER_TOP_ZN_2,131.26,7.1,1059.671,8.073,150.000,0.000,0.500,0.000,0.500,General,0.000,1059.671
 ElectricEquipment Internal Gains Nominal, TZ_PERIMETER_TOP_ZN_3 OFFICE WHOLEBUILDING - MD OFFICE ELEC EQUIP,OFFICEMEDIUM BLDG_EQUIP_SCH_2013,TZ_PERIMETER_TOP_ZN_3,207.34,11.2,1673.827,8.073,150.000,0.000,0.500,0.000,0.500,General,0.000,1673.827
 ElectricEquipment Internal Gains Nominal, TZ_PERIMETER_TOP_ZN_4 OFFICE WHOLEBUILDING - MD OFFICE ELEC EQUIP,OFFICEMEDIUM BLDG_EQUIP_SCH_2013,TZ_PERIMETER_TOP_ZN_4,131.25,7.1,1059.601,8.073,150.000,0.000,0.500,0.000,0.500,General,0.000,1059.601
! <Shadowing/Sun Position Calculations Annual Simulations>, Calculation Method, Value {days}, Allowable Number Figures in Shadow Overlap {}, Polygon Clipping Algorithm, Sky Diffuse Modeling Algorithm, External Shading Calculation Method, Output External Shading Calculation Results, Disable Self-Shading Within Shading Zone Groups, Disable Self-Shading From Shading Zone Groups to Other Zones
Shadowing/Sun Position Calculations Annual Simulations,AverageOverDaysInFrequency,7,15000,SutherlandHodgman,SimpleSkyDiffuseModeling,InternalCalculation,No,No,No
! <Zone/Window Adjacency Daylighting Counts>, Zone Name, Number of Exterior Windows, Number of Exterior Windows in Adjacent Zones
Zone/Window Adjacency Daylighting Counts, TZ_PERIMETER_BOT_ZN_1,1,0
Zone/Window Adjacency Daylighting Counts, TZ_PERIMETER_BOT_ZN_2,1,0
Zone/Window Adjacency Daylighting Counts, TZ_PERIMETER_BOT_ZN_3,1,0
Zone/Window Adjacency Daylighting Counts, TZ_PERIMETER_BOT_ZN_4,1,0
Zone/Window Adjacency Daylighting Counts, TZ_PERIMETER_MID_ZN_1,1,0
Zone/Window Adjacency Daylighting Counts, TZ_PERIMETER_MID_ZN_2,1,0
Zone/Window Adjacency Daylighting Counts, TZ_PERIMETER_MID_ZN_3,1,0
Zone/Window Adjacency Daylighting Counts, TZ_PERIMETER_MID_ZN_4,1,0
Zone/Window Adjacency Daylighting Counts, TZ_PERIMETER_TOP_ZN_1,1,0
Zone/Window Adjacency Daylighting Counts, TZ_PERIMETER_TOP_ZN_2,1,0
Zone/Window Adjacency Daylighting Counts, TZ_PERIMETER_TOP_ZN_3,1,0
Zone/Window Adjacency Daylighting Counts, TZ_PERIMETER_TOP_ZN_4,1,0
! <Zone/Window Adjacency Daylighting Matrix>, Zone Name, Number of Adjacent Zones with Windows,Adjacent Zone Names - 1st 100 (max)
Zone/Window Adjacency Daylighting Matrix, TZ_PERIMETER_BOT_ZN_1,0
Zone/Window Adjacency Daylighting Matrix, TZ_PERIMETER_BOT_ZN_2,0
Zone/Window Adjacency Daylighting Matrix, TZ_PERIMETER_BOT_ZN_3,0
Zone/Window Adjacency Daylighting Matrix, TZ_PERIMETER_BOT_ZN_4,0
Zone/Window Adjacency Daylighting Matrix, TZ_PERIMETER_MID_ZN_1,0
Zone/Window Adjacency Daylighting Matrix, TZ_PERIMETER_MID_ZN_2,0
Zone/Window Adjacency Daylighting Matrix, TZ_PERIMETER_MID_ZN_3,0
Zone/Window Adjacency Daylighting Matrix, TZ_PERIMETER_MID_ZN_4,0
Zone/Window Adjacency Daylighting Matrix, TZ_PERIMETER_TOP_ZN_1,0
Zone/Window Adjacency Daylighting Matrix, TZ_PERIMETER_TOP_ZN_2,0
Zone/Window Adjacency Daylighting Matrix, TZ_PERIMETER_TOP_ZN_3,0
Zone/Window Adjacency Daylighting Matrix, TZ_PERIMETER_TOP_ZN_4,0
! <Water Heater Information>,Type,Name,Volume {m3},Maximum Capacity {W},Standard Rated Recovery Efficiency, Standard Rated Energy Factor
! <ZoneInfiltration Airflow Stats Nominal>,Name,Schedule Name,Zone Name, Zone Floor Area {m2}, # Zone Occupants,Design Volume Flow Rate {m3/s},Volume Flow Rate/Floor Area {m3/s-m2},Volume Flow Rate/Exterior Surface Area {m3/s-m2},ACH - Air Changes per Hour,Equation A - Constant Term Coefficient {},Equation B - Temperature Term Coefficient {1/C},Equation C - Velocity Term Coefficient {s/m}, Equation D - Velocity Squared Term Coefficient {s2/m2}
 ZoneInfiltration Airflow Stats Nominal, FIRSTFLOOR_PLENUM INFILTRATION,ALWAYS ON DISCRETE,TZ_FIRSTFLOOR_PLENUM,1660.73,0.0,0.116,6.957E-005,5.696E-004,0.205,0.000,0.000,0.224,0.000
 ZoneInfiltration Airflow Stats Nominal, MIDFLOOR_PLENUM INFILTRATION,ALWAYS ON DISCRETE,TZ_MIDFLOOR_PLENUM,1660.73,0.0,0.116,6.957E-005,5.696E-004,0.205,0.000,0.000,0.224,0.000
 ZoneInfiltration Airflow Stats Nominal, ENTRY DOOR INFILTRATION,OFFICEMEDIUM INFIL_DOOR_OPENING_SCH,TZ_PERIMETER_BOT_ZN_1,207.34,11.2,0.679,3.273E-003,4.957E-003,4.296,1.000,0.000,0.000,0.000
 ZoneInfiltration Airflow Stats Nominal, PERIMETER_BOT_ZN_1 INFILTRATION,OFFICEMEDIUM INFIL_SCH_PNNL,TZ_PERIMETER_BOT_ZN_1,207.34,11.2,7.798E-002,3.761E-004,5.696E-004,0.494,0.000,0.000,0.224,0.000
 ZoneInfiltration Airflow Stats Nominal, PERIMETER_BOT_ZN_2 INFILTRATION,OFFICEMEDIUM INFIL_SCH_PNNL,TZ_PERIMETER_BOT_ZN_2,131.26,7.1,5.199E-002,3.961E-004,5.696E-004,0.520,0.000,0.000,0.224,0.000
 ZoneInfiltration Airflow Stats Nominal, PERIMETER_BOT_ZN_3 INFILTRATION,OFFICEMEDIUM INFIL_SCH_PNNL,TZ_PERIMETER_BOT_ZN_3,207.34,11.2,7.798E-002,3.761E-004,5.696E-004,0.494,0.000,0.000,0.224,0.000
 ZoneInfiltration Airflow Stats Nominal, PERIMETER_BOT_ZN_4 INFILTRATION,OFFICEMEDIUM INFIL_SCH_PNNL,TZ_PERIMETER_BOT_ZN_4,131.25,7.1,5.199E-002,3.961E-004,5.696E-004,0.520,0.000,0.000,0.224,0.000
 ZoneInfiltration Airflow Stats Nominal, PERIMETER_MID_ZN_1 INFILTRATION,OFFICEMEDIUM INFIL_SCH_PNNL,TZ_PERIMETER_MID_ZN_1,207.34,11.2,7.798E-002,3.761E-004,5.696E-004,0.494,0.000,0.000,0.224,0.000
 ZoneInfiltration Airflow Stats Nominal, PERIMETER_MID_ZN_2 INFILTRATION,OFFICEMEDIUM INFIL_SCH_PNNL,TZ_PERIMETER_MID_ZN_2,131.26,7.1,5.199E-002,3.961E-004,5.696E-004,0.520,0.000,0.000,0.224,0.000
 ZoneInfiltration Airflow Stats Nominal, PERIMETER_MID_ZN_3 INFILTRATION,OFFICEMEDIUM INFIL_SCH_PNNL,TZ_PERIMETER_MID_ZN_3,207.34,11.2,7.798E-002,3.761E-004,5.696E-004,0.494,0.000,0.000,0.224,0.000
 ZoneInfiltration Airflow Stats Nominal, PERIMETER_MID_ZN_4 INFILTRATION,OFFICEMEDIUM INFIL_SCH_PNNL,TZ_PERIMETER_MID_ZN_4,131.25,7.1,5.199E-002,3.961E-004,5.696E-004,0.520,0.000,0.000,0.224,0.000
 ZoneInfiltration Airflow Stats Nominal, PERIMETER_TOP_ZN_1 INFILTRATION,OFFICEMEDIUM INFIL_SCH_PNNL,TZ_PERIMETER_TOP_ZN_1,207.34,11.2,7.798E-002,3.761E-004,5.696E-004,0.494,0.000,0.000,0.224,0.000
 ZoneInfiltration Airflow Stats Nominal, PERIMETER_TOP_ZN_2 INFILTRATION,OFFICEMEDIUM INFIL_SCH_PNNL,TZ_PERIMETER_TOP_ZN_2,131.26,7.1,5.199E-002,3.961E-004,5.696E-004,0.520,0.000,0.000,0.224,0.000
 ZoneInfiltration Airflow Stats Nominal, PERIMETER_TOP_ZN_3 INFILTRATION,OFFICEMEDIUM INFIL_SCH_PNNL,TZ_PERIMETER_TOP_ZN_3,207.34,11.2,7.798E-002,3.761E-004,5.696E-004,0.494,0.000,0.000,0.224,0.000
 ZoneInfiltration Airflow Stats Nominal, PERIMETER_TOP_ZN_4 INFILTRATION,OFFICEMEDIUM INFIL_SCH_PNNL,TZ_PERIMETER_TOP_ZN_4,131.25,7.1,5.199E-002,3.961E-004,5.696E-004,0.520,0.000,0.000,0.224,0.000
 ZoneInfiltration Airflow Stats Nominal, TOPFLOOR_PLENUM INFILTRATION,ALWAYS ON DISCRETE,TZ_TOPFLOOR_PLENUM,1660.73,0.0,0.116,6.957E-005,6.199E-005,0.205,0.000,0.000,0.224,0.000
 ZoneInfiltration Airflow Stats Nominal, TZ_CORE_GROUND 90.1-2010 - RETAIL - RETAIL INFILTRATION,RETAIL INFIL HALF ON,TZ_CORE_GROUND,983.54,158.8,0.000,0.000,N/A,0.000,1.000,0.000,0.000,0.000
 ZoneInfiltration Airflow Stats Nominal, TZ_PERIMETER_GROUND_ZN_1 90.1-2010 - RETAIL - RETAIL INFILTRATION,RETAIL INFIL HALF ON,TZ_PERIMETER_GROUND_ZN_1,207.34,33.5,4.481E-002,2.161E-004,2.266E-004,0.196,1.000,0.000,0.000,0.000
 ZoneInfiltration Airflow Stats Nominal, TZ_PERIMETER_GROUND_ZN_2 90.1-2010 - RETAIL - RETAIL INFILTRATION,RETAIL INFIL HALF ON,TZ_PERIMETER_GROUND_ZN_2,131.26,21.2,2.987E-002,2.276E-004,2.266E-004,0.207,1.000,0.000,0.000,0.000
 ZoneInfiltration Airflow Stats Nominal, TZ_PERIMETER_GROUND_ZN_3 90.1-2010 - RETAIL - RETAIL INFILTRATION,RETAIL INFIL HALF ON,TZ_PERIMETER_GROUND_ZN_3,207.34,33.5,4.481E-002,2.161E-004,2.266E-004,0.196,1.000,0.000,0.000,0.000
 ZoneInfiltration Airflow Stats Nominal, TZ_PERIMETER_GROUND_ZN_4 90.1-2010 - RETAIL - RETAIL INFILTRATION,RETAIL INFIL HALF ON,TZ_PERIMETER_GROUND_ZN_4,131.25,21.2,2.987E-002,2.276E-004,2.266E-004,0.207,1.000,0.000,0.000,0.000
! <AirFlow Model>, Simple
 AirFlow Model, Simple
! <RoomAir Model>, Zone Name, Mixing/Mundt/UCSDDV/UCSDCV/UCSDUFI/UCSDUFE/User Defined
RoomAir Model,TZ_CORE_BOTTOM,Mixing/Well-Stirred
RoomAir Model,TZ_CORE_GROUND,Mixing/Well-Stirred
RoomAir Model,TZ_CORE_MID,Mixing/Well-Stirred
RoomAir Model,TZ_CORE_TOP,Mixing/Well-Stirred
RoomAir Model,TZ_FIRSTFLOOR_PLENUM,Mixing/Well-Stirred
RoomAir Model,TZ_GROUNDFLOOR_PLENUM,Mixing/Well-Stirred
RoomAir Model,TZ_MIDFLOOR_PLENUM,Mixing/Well-Stirred
RoomAir Model,TZ_PERIMETER_BOT_ZN_1,Mixing/Well-Stirred
RoomAir Model,TZ_PERIMETER_BOT_ZN_2,Mixing/Well-Stirred
RoomAir Model,TZ_PERIMETER_BOT_ZN_3,Mixing/Well-Stirred
RoomAir Model,TZ_PERIMETER_BOT_ZN_4,Mixing/Well-Stirred
RoomAir Model,TZ_PERIMETER_GROUND_ZN_1,Mixing/Well-Stirred
RoomAir Model,TZ_PERIMETER_GROUND_ZN_2,Mixing/Well-Stirred
RoomAir Model,TZ_PERIMETER_GROUND_ZN_3,Mixing/Well-Stirred
RoomAir Model,TZ_PERIMETER_GROUND_ZN_4,Mixing/Well-Stirred
RoomAir Model,TZ_PERIMETER_MID_ZN_1,Mixing/Well-Stirred
RoomAir Model,TZ_PERIMETER_MID_ZN_2,Mixing/Well-Stirred
RoomAir Model,TZ_PERIMETER_MID_ZN_3,Mixing/Well-Stirred
RoomAir Model,TZ_PERIMETER_MID_ZN_4,Mixing/Well-Stirred
RoomAir Model,TZ_PERIMETER_TOP_ZN_1,Mixing/Well-Stirred
RoomAir Model,TZ_PERIMETER_TOP_ZN_2,Mixing/Well-Stirred
RoomAir Model,TZ_PERIMETER_TOP_ZN_3,Mixing/Well-Stirred
RoomAir Model,TZ_PERIMETER_TOP_ZN_4,Mixing/Well-Stirred
RoomAir Model,TZ_TOPFLOOR_PLENUM,Mixing/Well-Stirred
! <AirflowNetwork Model:Control>, No Multizone or Distribution/Multizone with Distribution/Multizone without Distribution/Multizone with Distribution only during Fan Operation
AirflowNetwork Model:Control,NoMultizoneOrDistribution
! <Zone Volume Capacitance Multiplier>, Sensible Heat Capacity Multiplier, Moisture Capacity Multiplier, Carbon Dioxide Capacity Multiplier, Generic Contaminant Capacity Multiplier
Zone Volume Capacitance Multiplier,   1.000 ,   1.000,   1.000,   1.000
! <Zone Sizing DOAS Inputs>, Zone Name, DOAS Design Control Strategy, DOAS Design Low Setpoint Temperature {C}, DOAS Design High Setpoint Temperature {C} 
 Zone Sizing DOAS Inputs, TZ_CORE_BOTTOM, NeutralSupplyAir, 15.556, 21.111
 Zone Sizing DOAS Inputs, TZ_CORE_GROUND, NeutralSupplyAir, 15.556, 21.111
 Zone Sizing DOAS Inputs, TZ_CORE_MID, NeutralSupplyAir, 15.556, 21.111
 Zone Sizing DOAS Inputs, TZ_CORE_TOP, NeutralSupplyAir, 15.556, 21.111
 Zone Sizing DOAS Inputs, TZ_PERIMETER_BOT_ZN_1, NeutralSupplyAir, 15.556, 21.111
 Zone Sizing DOAS Inputs, TZ_PERIMETER_BOT_ZN_2, NeutralSupplyAir, 15.556, 21.111
 Zone Sizing DOAS Inputs, TZ_PERIMETER_BOT_ZN_3, NeutralSupplyAir, 15.556, 21.111
 Zone Sizing DOAS Inputs, TZ_PERIMETER_BOT_ZN_4, NeutralSupplyAir, 15.556, 21.111
 Zone Sizing DOAS Inputs, TZ_PERIMETER_GROUND_ZN_1, NeutralSupplyAir, 15.556, 21.111
 Zone Sizing DOAS Inputs, TZ_PERIMETER_GROUND_ZN_2, NeutralSupplyAir, 15.556, 21.111
 Zone Sizing DOAS Inputs, TZ_PERIMETER_GROUND_ZN_3, NeutralSupplyAir, 15.556, 21.111
 Zone Sizing DOAS Inputs, TZ_PERIMETER_GROUND_ZN_4, NeutralSupplyAir, 15.556, 21.111
 Zone Sizing DOAS Inputs, TZ_PERIMETER_MID_ZN_1, NeutralSupplyAir, 15.556, 21.111
 Zone Sizing DOAS Inputs, TZ_PERIMETER_MID_ZN_2, NeutralSupplyAir, 15.556, 21.111
 Zone Sizing DOAS Inputs, TZ_PERIMETER_MID_ZN_3, NeutralSupplyAir, 15.556, 21.111
 Zone Sizing DOAS Inputs, TZ_PERIMETER_MID_ZN_4, NeutralSupplyAir, 15.556, 21.111
 Zone Sizing DOAS Inputs, TZ_PERIMETER_TOP_ZN_1, NeutralSupplyAir, 15.556, 21.111
 Zone Sizing DOAS Inputs, TZ_PERIMETER_TOP_ZN_2, NeutralSupplyAir, 15.556, 21.111
 Zone Sizing DOAS Inputs, TZ_PERIMETER_TOP_ZN_3, NeutralSupplyAir, 15.556, 21.111
 Zone Sizing DOAS Inputs, TZ_PERIMETER_TOP_ZN_4, NeutralSupplyAir, 15.556, 21.111
! <Load Timesteps in Zone Design Calculation Averaging Window>, Value
 Load Timesteps in Zone Design Calculation Averaging Window,    6
! <Heating Sizing Factor Information>, Sizing Factor ID, Value
 Heating Sizing Factor Information, Global,   1.0000    
! <Cooling Sizing Factor Information>, Sizing Factor ID, Value
 Cooling Sizing Factor Information, Global,   1.0000    
! <Sky Daylight Factors>, MonthAndDay, Zone Name, Window Name, Daylight Fac: Ref Pt #1, Daylight Fac: Ref Pt #2
 Clear Sky Daylight Factors,07/21,TZ_PERIMETER_BOT_ZN_1,PERIMETER_BOT_ZN_1 - WALL 180_A - SUB:A,7.7213E-002,3.6727E-002
 Clear Turbid Sky Daylight Factors,07/21,TZ_PERIMETER_BOT_ZN_1,PERIMETER_BOT_ZN_1 - WALL 180_A - SUB:A,7.4415E-002,3.3910E-002
 Intermediate Sky Daylight Factors,07/21,TZ_PERIMETER_BOT_ZN_1,PERIMETER_BOT_ZN_1 - WALL 180_A - SUB:A,5.9918E-002,2.4501E-002
 Overcast Sky Daylight Factors,07/21,TZ_PERIMETER_BOT_ZN_1,PERIMETER_BOT_ZN_1 - WALL 180_A - SUB:A,5.2979E-002,2.1484E-002
 Clear Sky Daylight Factors,07/21,TZ_PERIMETER_BOT_ZN_2,PERIMETER_BOT_ZN_2 - WALL 090_A - SUB:A,5.3391E-002,2.7620E-002
 Clear Turbid Sky Daylight Factors,07/21,TZ_PERIMETER_BOT_ZN_2,PERIMETER_BOT_ZN_2 - WALL 090_A - SUB:A,4.6986E-002,2.3639E-002
 Intermediate Sky Daylight Factors,07/21,TZ_PERIMETER_BOT_ZN_2,PERIMETER_BOT_ZN_2 - WALL 090_A - SUB:A,3.8036E-002,1.6523E-002
 Overcast Sky Daylight Factors,07/21,TZ_PERIMETER_BOT_ZN_2,PERIMETER_BOT_ZN_2 - WALL 090_A - SUB:A,5.3492E-002,2.1803E-002
 Clear Sky Daylight Factors,07/21,TZ_PERIMETER_BOT_ZN_3,PERIMETER_BOT_ZN_3 - WALL 000_A - SUB:A,4.1696E-002,2.3166E-002
 Clear Turbid Sky Daylight Factors,07/21,TZ_PERIMETER_BOT_ZN_3,PERIMETER_BOT_ZN_3 - WALL 000_A - SUB:A,3.4161E-002,1.8696E-002
 Intermediate Sky Daylight Factors,07/21,TZ_PERIMETER_BOT_ZN_3,PERIMETER_BOT_ZN_3 - WALL 000_A - SUB:A,2.4486E-002,1.1116E-002
 Overcast Sky Daylight Factors,07/21,TZ_PERIMETER_BOT_ZN_3,PERIMETER_BOT_ZN_3 - WALL 000_A - SUB:A,5.2979E-002,2.1484E-002
 Clear Sky Daylight Factors,07/21,TZ_PERIMETER_BOT_ZN_4,PERIMETER_BOT_ZN_4 - WALL 270_A - SUB:A,5.4180E-002,2.7924E-002
 Clear Turbid Sky Daylight Factors,07/21,TZ_PERIMETER_BOT_ZN_4,PERIMETER_BOT_ZN_4 - WALL 270_A - SUB:A,4.7872E-002,2.3977E-002
 Intermediate Sky Daylight Factors,07/21,TZ_PERIMETER_BOT_ZN_4,PERIMETER_BOT_ZN_4 - WALL 270_A - SUB:A,3.8843E-002,1.6831E-002
 Overcast Sky Daylight Factors,07/21,TZ_PERIMETER_BOT_ZN_4,PERIMETER_BOT_ZN_4 - WALL 270_A - SUB:A,5.3492E-002,2.1804E-002
 Clear Sky Daylight Factors,07/21,TZ_PERIMETER_MID_ZN_1,PERIMETER_MID_ZN_1 - WALL 180_A - SUB:A,7.8066E-002,3.7580E-002
 Clear Turbid Sky Daylight Factors,07/21,TZ_PERIMETER_MID_ZN_1,PERIMETER_MID_ZN_1 - WALL 180_A - SUB:A,7.5229E-002,3.4724E-002
 Intermediate Sky Daylight Factors,07/21,TZ_PERIMETER_MID_ZN_1,PERIMETER_MID_ZN_1 - WALL 180_A - SUB:A,6.0512E-002,2.5095E-002
 Overcast Sky Daylight Factors,07/21,TZ_PERIMETER_MID_ZN_1,PERIMETER_MID_ZN_1 - WALL 180_A - SUB:A,5.3411E-002,2.1915E-002
 Clear Sky Daylight Factors,07/21,TZ_PERIMETER_MID_ZN_2,PERIMETER_MID_ZN_2 - WALL 090_A - SUB:A,5.3932E-002,2.8161E-002
 Clear Turbid Sky Daylight Factors,07/21,TZ_PERIMETER_MID_ZN_2,PERIMETER_MID_ZN_2 - WALL 090_A - SUB:A,4.7431E-002,2.4085E-002
 Intermediate Sky Daylight Factors,07/21,TZ_PERIMETER_MID_ZN_2,PERIMETER_MID_ZN_2 - WALL 090_A - SUB:A,3.8327E-002,1.6814E-002
 Overcast Sky Daylight Factors,07/21,TZ_PERIMETER_MID_ZN_2,PERIMETER_MID_ZN_2 - WALL 090_A - SUB:A,5.3935E-002,2.2246E-002
 Clear Sky Daylight Factors,07/21,TZ_PERIMETER_MID_ZN_3,PERIMETER_MID_ZN_3 - WALL 000_A - SUB:A,4.2072E-002,2.3543E-002
 Clear Turbid Sky Daylight Factors,07/21,TZ_PERIMETER_MID_ZN_3,PERIMETER_MID_ZN_3 - WALL 000_A - SUB:A,3.4425E-002,1.8960E-002
 Intermediate Sky Daylight Factors,07/21,TZ_PERIMETER_MID_ZN_3,PERIMETER_MID_ZN_3 - WALL 000_A - SUB:A,2.4590E-002,1.1221E-002
 Overcast Sky Daylight Factors,07/21,TZ_PERIMETER_MID_ZN_3,PERIMETER_MID_ZN_3 - WALL 000_A - SUB:A,5.3411E-002,2.1915E-002
 Clear Sky Daylight Factors,07/21,TZ_PERIMETER_MID_ZN_4,PERIMETER_MID_ZN_4 - WALL 270_A - SUB:A,5.4732E-002,2.8476E-002
 Clear Turbid Sky Daylight Factors,07/21,TZ_PERIMETER_MID_ZN_4,PERIMETER_MID_ZN_4 - WALL 270_A - SUB:A,4.8330E-002,2.4435E-002
 Intermediate Sky Daylight Factors,07/21,TZ_PERIMETER_MID_ZN_4,PERIMETER_MID_ZN_4 - WALL 270_A - SUB:A,3.9145E-002,1.7134E-002
 Overcast Sky Daylight Factors,07/21,TZ_PERIMETER_MID_ZN_4,PERIMETER_MID_ZN_4 - WALL 270_A - SUB:A,5.3935E-002,2.2247E-002
 Clear Sky Daylight Factors,07/21,TZ_PERIMETER_TOP_ZN_1,PERIMETER_TOP_ZN_1 - WALL 180_A - SUB:A,7.8066E-002,3.7580E-002
 Clear Turbid Sky Daylight Factors,07/21,TZ_PERIMETER_TOP_ZN_1,PERIMETER_TOP_ZN_1 - WALL 180_A - SUB:A,7.5229E-002,3.4724E-002
 Intermediate Sky Daylight Factors,07/21,TZ_PERIMETER_TOP_ZN_1,PERIMETER_TOP_ZN_1 - WALL 180_A - SUB:A,6.0512E-002,2.5095E-002
 Overcast Sky Daylight Factors,07/21,TZ_PERIMETER_TOP_ZN_1,PERIMETER_TOP_ZN_1 - WALL 180_A - SUB:A,5.3411E-002,2.1915E-002
 Clear Sky Daylight Factors,07/21,TZ_PERIMETER_TOP_ZN_2,PERIMETER_TOP_ZN_2 - WALL 090_A - SUB:A,5.3932E-002,2.8161E-002
 Clear Turbid Sky Daylight Factors,07/21,TZ_PERIMETER_TOP_ZN_2,PERIMETER_TOP_ZN_2 - WALL 090_A - SUB:A,4.7431E-002,2.4085E-002
 Intermediate Sky Daylight Factors,07/21,TZ_PERIMETER_TOP_ZN_2,PERIMETER_TOP_ZN_2 - WALL 090_A - SUB:A,3.8327E-002,1.6814E-002
 Overcast Sky Daylight Factors,07/21,TZ_PERIMETER_TOP_ZN_2,PERIMETER_TOP_ZN_2 - WALL 090_A - SUB:A,5.3935E-002,2.2246E-002
 Clear Sky Daylight Factors,07/21,TZ_PERIMETER_TOP_ZN_3,PERIMETER_TOP_ZN_3 - WALL 000_A - SUB:A,4.2072E-002,2.3543E-002
 Clear Turbid Sky Daylight Factors,07/21,TZ_PERIMETER_TOP_ZN_3,PERIMETER_TOP_ZN_3 - WALL 000_A - SUB:A,3.4425E-002,1.8960E-002
 Intermediate Sky Daylight Factors,07/21,TZ_PERIMETER_TOP_ZN_3,PERIMETER_TOP_ZN_3 - WALL 000_A - SUB:A,2.4590E-002,1.1221E-002
 Overcast Sky Daylight Factors,07/21,TZ_PERIMETER_TOP_ZN_3,PERIMETER_TOP_ZN_3 - WALL 000_A - SUB:A,5.3411E-002,2.1915E-002
 Clear Sky Daylight Factors,07/21,TZ_PERIMETER_TOP_ZN_4,PERIMETER_TOP_ZN_4 - WALL 270_A - SUB:A,5.4732E-002,2.8476E-002
 Clear Turbid Sky Daylight Factors,07/21,TZ_PERIMETER_TOP_ZN_4,PERIMETER_TOP_ZN_4 - WALL 270_A - SUB:A,4.8330E-002,2.4435E-002
 Intermediate Sky Daylight Factors,07/21,TZ_PERIMETER_TOP_ZN_4,PERIMETER_TOP_ZN_4 - WALL 270_A - SUB:A,3.9145E-002,1.7134E-002
 Overcast Sky Daylight Factors,07/21,TZ_PERIMETER_TOP_ZN_4,PERIMETER_TOP_ZN_4 - WALL 270_A - SUB:A,5.3935E-002,2.2247E-002
! <Zone Sizing Information>, Zone Name, Load Type, Calc Des Load {W}, User Des Load {W}, Calc Des Air Flow Rate {m3/s}, User Des Air Flow Rate {m3/s}, Design Day Name, Date/Time of Peak, Temperature at Peak {C}, Humidity Ratio at Peak {kgWater/kgDryAir}, Floor Area {m2}, # Occupants, Calc Outdoor Air Flow Rate {m3/s}, Calc DOAS Heat Addition Rate {W}
 Zone Sizing Information, TZ_CORE_BOTTOM, Cooling, 50267.95425, 50267.95425, 3.70413, 3.70413, CHICAGO OHARE INTL AP ANN CLG .4% CONDNS DB=>MWB, 7/21 08:00:00, 25.53000, 1.49611E-002, 983.53657, 52.93350, 0.42469, -1293.35921
 Zone Sizing Information, TZ_CORE_BOTTOM, Heating, 15108.74390, 15108.74390, 0.66294, 0.66294, CHICAGO OHARE INTL AP ANN HTG 99.6% CONDNS DB, 1/21 08:20:00, -20.00000, 6.49857E-004, 983.53657, 52.93350, 0.42469, -2323.16502
 Zone Sizing Information, TZ_CORE_GROUND, Cooling, 47666.42919, 47666.42919, 3.22540, 3.22540, CHICAGO OHARE INTL AP ANN CLG .4% CONDNS DB=>MWB, 7/21 07:00:00, 23.74500, 1.49611E-002, 983.53657, 158.80049, 1.16166, -3659.65512
 Zone Sizing Information, TZ_CORE_GROUND, Heating, 1497.43479, 1497.43479, 0.12244, 1.16166, CHICAGO OHARE INTL AP ANN CLG .4% CONDNS DB=>MWB, 7/21 23:30:00, 25.05750, 1.49611E-002, 983.53657, 158.80049, 1.16166, -10611.49873
 Zone Sizing Information, TZ_CORE_MID, Cooling, 30264.16702, 30264.16702, 2.22718, 2.22718, CHICAGO OHARE INTL AP ANN CLG .4% CONDNS DB=>MWB, 7/21 08:00:00, 25.53000, 1.49611E-002, 983.53657, 52.93350, 0.42469, -1292.10706
 Zone Sizing Information, TZ_CORE_MID, Heating, 17833.80406, 17833.80406, 0.77422, 0.77422, CHICAGO OHARE INTL AP ANN HTG 99.6% CONDNS DB, 1/21 08:00:00, -20.00000, 6.49857E-004, 983.53657, 52.93350, 0.42469, -2307.41187
 Zone Sizing Information, TZ_CORE_TOP, Cooling, 30512.54024, 30512.54024, 2.24550, 2.24550, CHICAGO OHARE INTL AP ANN CLG .4% CONDNS DB=>MWB, 7/21 08:00:00, 25.53000, 1.49611E-002, 983.53657, 52.93350, 0.42469, -1292.13294
 Zone Sizing Information, TZ_CORE_TOP, Heating, 29206.24169, 29206.24169, 1.27209, 1.27209, CHICAGO OHARE INTL AP ANN HTG 99.6% CONDNS DB, 1/21 08:00:00, -20.00000, 6.49857E-004, 983.53657, 52.93350, 0.42469, -2303.07856
 Zone Sizing Information, TZ_PERIMETER_BOT_ZN_1, Cooling, 12096.20734, 12096.20734, 0.89836, 0.89836, CHICAGO OHARE INTL AP ANN CLG .4% CONDNS DB=>MWB, 7/21 13:00:00, 32.77500, 1.49611E-002, 207.33814, 11.15885, 8.95286E-002, -266.57912
 Zone Sizing Information, TZ_PERIMETER_BOT_ZN_1, Heating, 10348.64739, 10348.64739, 0.45160, 0.45160, CHICAGO OHARE INTL AP ANN HTG 99.6% CONDNS DB, 1/21 08:00:00, -20.00000, 6.49857E-004, 207.33814, 11.15885, 8.95286E-002, -485.24080
 Zone Sizing Information, TZ_PERIMETER_BOT_ZN_2, Cooling, 11245.23606, 11245.23606, 0.82932, 0.82932, CHICAGO OHARE INTL AP ANN CLG .4% CONDNS DB=>MWB, 7/21 08:00:00, 25.53000, 1.49611E-002, 131.26219, 7.06447, 5.66790E-002, -172.79655
 Zone Sizing Information, TZ_PERIMETER_BOT_ZN_2, Heating, 6719.34287, 6719.34287, 0.29324, 0.29324, CHICAGO OHARE INTL AP ANN HTG 99.6% CONDNS DB, 1/21 08:00:00, -20.00000, 6.49857E-004, 131.26219, 7.06447, 5.66790E-002, -307.19808
 Zone Sizing Information, TZ_PERIMETER_BOT_ZN_3, Cooling, 8340.15723, 8340.15723, 0.61941, 0.61941, CHICAGO OHARE INTL AP ANN CLG .4% CONDNS DB=>MWB, 7/21 14:10:00, 33.30000, 1.49611E-002, 207.33814, 11.15885, 8.95286E-002, -266.57712
 Zone Sizing Information, TZ_PERIMETER_BOT_ZN_3, Heating, 10231.41037, 10231.41037, 0.44647, 0.44647, CHICAGO OHARE INTL AP ANN HTG 99.6% CONDNS DB, 1/21 08:00:00, -20.00000, 6.49857E-004, 207.33814, 11.15885, 8.95286E-002, -485.24077
 Zone Sizing Information, TZ_PERIMETER_BOT_ZN_4, Cooling, 11117.90860, 11117.90860, 0.82570, 0.82570, CHICAGO OHARE INTL AP ANN CLG .4% CONDNS DB=>MWB, 7/21 16:50:00, 31.97000, 1.49611E-002, 131.25358, 7.06401, 5.66753E-002, -168.75976
 Zone Sizing Information, TZ_PERIMETER_BOT_ZN_4, Heating, 6808.93245, 6808.93245, 0.29716, 0.29716, CHICAGO OHARE INTL AP ANN HTG 99.6% CONDNS DB, 1/21 08:00:00, -20.00000, 6.49857E-004, 131.25358, 7.06401, 5.66753E-002, -307.17734
 Zone Sizing Information, TZ_PERIMETER_GROUND_ZN_1, Cooling, 19200.01198, 19200.01198, 1.42650, 1.42650, CHICAGO OHARE INTL AP ANN CLG .4% CONDNS DB=>MWB, 7/21 12:50:00, 32.63500, 1.49611E-002, 207.33814, 33.47654, 0.24489, -728.07342
 Zone Sizing Information, TZ_PERIMETER_GROUND_ZN_1, Heating, 10406.96313, 10406.96313, 0.45652, 0.45652, CHICAGO OHARE INTL AP ANN HTG 99.6% CONDNS DB, 1/21 13:50:00, -20.00000, 6.49857E-004, 207.33814, 33.47654, 0.24489, -1338.48088
 Zone Sizing Information, TZ_PERIMETER_GROUND_ZN_2, Cooling, 19184.70853, 19184.70853, 1.42535, 1.42535, CHICAGO OHARE INTL AP ANN CLG .4% CONDNS DB=>MWB, 7/21 08:40:00, 26.86000, 1.49611E-002, 131.26219, 21.19342, 0.15503, -460.94952
 Zone Sizing Information, TZ_PERIMETER_GROUND_ZN_2, Heating, 6909.20631, 6909.20631, 0.30309, 0.30309, CHICAGO OHARE INTL AP ANN HTG 99.6% CONDNS DB, 1/21 13:50:00, -20.00000, 6.49857E-004, 131.26219, 21.19342, 0.15503, -847.35581
 Zone Sizing Information, TZ_PERIMETER_GROUND_ZN_3, Cooling, 13056.98419, 13056.98419, 0.90173, 0.90173, CHICAGO OHARE INTL AP ANN CLG .4% CONDNS DB=>MWB, 7/21 07:00:00, 23.74500, 1.49611E-002, 207.33814, 33.47654, 0.24489, -777.66442
 Zone Sizing Information, TZ_PERIMETER_GROUND_ZN_3, Heating, 10406.95394, 10406.95394, 0.45652, 0.45652, CHICAGO OHARE INTL AP ANN HTG 99.6% CONDNS DB, 1/21 13:50:00, -20.00000, 6.49857E-004, 207.33814, 33.47654, 0.24489, -1338.48088
 Zone Sizing Information, TZ_PERIMETER_GROUND_ZN_4, Cooling, 19651.35023, 19651.35023, 1.46002, 1.46002, CHICAGO OHARE INTL AP ANN CLG .4% CONDNS DB=>MWB, 7/21 16:40:00, 32.11000, 1.49611E-002, 131.25358, 21.19203, 0.15502, -460.91907
 Zone Sizing Information, TZ_PERIMETER_GROUND_ZN_4, Heating, 7041.17232, 7041.17232, 0.30887, 0.30887, CHICAGO OHARE INTL AP ANN HTG 99.6% CONDNS DB, 1/21 13:50:00, -20.00000, 6.49857E-004, 131.25358, 21.19203, 0.15502, -847.29200
 Zone Sizing Information, TZ_PERIMETER_MID_ZN_1, Cooling, 11783.05837, 11783.05837, 0.87511, 0.87511, CHICAGO OHARE INTL AP ANN CLG .4% CONDNS DB=>MWB, 7/21 13:00:00, 32.77500, 1.49611E-002, 207.33814, 11.15885, 8.95286E-002, -266.57420
 Zone Sizing Information, TZ_PERIMETER_MID_ZN_1, Heating, 10984.91996, 10984.91996, 0.47944, 0.47944, CHICAGO OHARE INTL AP ANN HTG 99.6% CONDNS DB, 1/21 08:00:00, -20.00000, 6.49857E-004, 207.33814, 11.15885, 8.95286E-002, -485.23256
 Zone Sizing Information, TZ_PERIMETER_MID_ZN_2, Cooling, 11015.74787, 11015.74787, 0.81810, 0.81810, CHICAGO OHARE INTL AP ANN CLG .4% CONDNS DB=>MWB, 7/21 08:20:00, 26.19500, 1.49611E-002, 131.26219, 7.06447, 5.66790E-002, -168.78148
 Zone Sizing Information, TZ_PERIMETER_MID_ZN_2, Heating, 7121.45234, 7121.45234, 0.31084, 0.31084, CHICAGO OHARE INTL AP ANN HTG 99.6% CONDNS DB, 1/21 08:00:00, -20.00000, 6.49857E-004, 131.26219, 7.06447, 5.66790E-002, -307.19244
 Zone Sizing Information, TZ_PERIMETER_MID_ZN_3, Cooling, 8073.66555, 8073.66555, 0.59962, 0.59962, CHICAGO OHARE INTL AP ANN CLG .4% CONDNS DB=>MWB, 7/21 14:20:00, 33.30000, 1.49611E-002, 207.33814, 11.15885, 8.95286E-002, -266.57274
 Zone Sizing Information, TZ_PERIMETER_MID_ZN_3, Heating, 10872.89205, 10872.89205, 0.47454, 0.47454, CHICAGO OHARE INTL AP ANN HTG 99.6% CONDNS DB, 1/21 08:00:00, -20.00000, 6.49857E-004, 207.33814, 11.15885, 8.95286E-002, -485.23280
 Zone Sizing Information, TZ_PERIMETER_MID_ZN_4, Cooling, 10911.09284, 10911.09284, 0.81034, 0.81034, CHICAGO OHARE INTL AP ANN CLG .4% CONDNS DB=>MWB, 7/21 16:50:00, 31.97000, 1.49611E-002, 131.25358, 7.06401, 5.66753E-002, -168.75655
 Zone Sizing Information, TZ_PERIMETER_MID_ZN_4, Heating, 7216.10506, 7216.10506, 0.31498, 0.31498, CHICAGO OHARE INTL AP ANN HTG 99.6% CONDNS DB, 1/21 08:00:00, -20.00000, 6.49857E-004, 131.25358, 7.06401, 5.66753E-002, -307.17151
 Zone Sizing Information, TZ_PERIMETER_TOP_ZN_1, Cooling, 11996.37927, 11996.37927, 0.89096, 0.89096, CHICAGO OHARE INTL AP ANN CLG .4% CONDNS DB=>MWB, 7/21 13:00:00, 32.77500, 1.49611E-002, 207.33814, 11.15885, 8.95286E-002, -266.57099
 Zone Sizing Information, TZ_PERIMETER_TOP_ZN_1, Heating, 13304.25898, 13304.25898, 0.58095, 0.58095, CHICAGO OHARE INTL AP ANN HTG 99.6% CONDNS DB, 1/21 08:00:00, -20.00000, 6.49857E-004, 207.33814, 11.15885, 8.95286E-002, -485.21324
 Zone Sizing Information, TZ_PERIMETER_TOP_ZN_2, Cooling, 11026.20451, 11026.20451, 0.81888, 0.81888, CHICAGO OHARE INTL AP ANN CLG .4% CONDNS DB=>MWB, 7/21 08:20:00, 26.19500, 1.49611E-002, 131.26219, 7.06447, 5.66790E-002, -168.77965
 Zone Sizing Information, TZ_PERIMETER_TOP_ZN_2, Heating, 8588.94276, 8588.94276, 0.37506, 0.37506, CHICAGO OHARE INTL AP ANN HTG 99.6% CONDNS DB, 1/21 08:00:00, -20.00000, 6.49857E-004, 131.26219, 7.06447, 5.66790E-002, -307.17974
 Zone Sizing Information, TZ_PERIMETER_TOP_ZN_3, Cooling, 8412.65196, 8412.65196, 0.62480, 0.62480, CHICAGO OHARE INTL AP ANN CLG .4% CONDNS DB=>MWB, 7/21 14:50:00, 33.30000, 1.49611E-002, 207.33814, 11.15885, 8.95286E-002, -266.56981
 Zone Sizing Information, TZ_PERIMETER_TOP_ZN_3, Heating, 13209.59376, 13209.59376, 0.57680, 0.57680, CHICAGO OHARE INTL AP ANN HTG 99.6% CONDNS DB, 1/21 08:00:00, -20.00000, 6.49857E-004, 207.33814, 11.15885, 8.95286E-002, -485.21350
 Zone Sizing Information, TZ_PERIMETER_TOP_ZN_4, Cooling, 11198.90991, 11198.90991, 0.83172, 0.83172, CHICAGO OHARE INTL AP ANN CLG .4% CONDNS DB=>MWB, 7/21 16:50:00, 31.97000, 1.49611E-002, 131.25358, 7.06401, 5.66753E-002, -168.75502
 Zone Sizing Information, TZ_PERIMETER_TOP_ZN_4, Heating, 8687.08743, 8687.08743, 0.37936, 0.37936, CHICAGO OHARE INTL AP ANN HTG 99.6% CONDNS DB, 1/21 08:00:00, -20.00000, 6.49857E-004, 131.25358, 7.06401, 5.66753E-002, -307.15862
! <System Sizing Information>, System Name, Load Type, Peak Load Kind, User Design Capacity, Calc Des Air Flow Rate [m3/s], User Des Air Flow Rate [m3/s], Design Day Name, Date/Time of Peak
 System Sizing Information, 15 ZONE DOAS, Cooling, Sensible, 45106.04, 15.16660, 2.15131, CHICAGO OHARE INTL AP ANN CLG .4% CONDNS DB=>MWB, 7/21 00:00:00
 System Sizing Information, 15 ZONE DOAS, Heating, Sensible, 104503.65, 7.67738, 2.15131, CHICAGO OHARE INTL AP ANN HTG 99.6% CONDNS DB, 1/21 08:00:00
 System Sizing Information, 5 ZONE DOAS, Cooling, Sensible, 41126.09, 6.71569, 1.96149, CHICAGO OHARE INTL AP ANN CLG .4% CONDNS DB=>MWB, 7/21 00:00:00
 System Sizing Information, 5 ZONE DOAS, Heating, Sensible, 95282.74, 2.68666, 1.96149, CHICAGO OHARE INTL AP ANN HTG 99.6% CONDNS DB, 1/21 13:50:00
! <Component Sizing Information>, Component Type, Component Name, Input Field Description, Value
 Component Sizing Information, AirTerminal:SingleDuct:ConstantVolume:NoReheat, TZ_CORE_BOTTOM AIR TERMINAL, Design Size Maximum Air Flow Rate [m3/s], 0.42469
 Component Sizing Information, ZoneHVAC:TerminalUnit:VariableRefrigerantFlow, TZ_CORE_BOTTOM VRF TERMINAL UNIT, Design Size Cooling Supply Air Flow Rate [m3/s], 3.70413
 Component Sizing Information, ZoneHVAC:TerminalUnit:VariableRefrigerantFlow, TZ_CORE_BOTTOM VRF TERMINAL UNIT, Design Size Heating Supply Air Flow Rate [m3/s], 3.70413
 Component Sizing Information, ZoneHVAC:TerminalUnit:VariableRefrigerantFlow, TZ_CORE_BOTTOM VRF TERMINAL UNIT, Design Size No Cooling Supply Air Flow Rate [m3/s], 3.70413
 Component Sizing Information, ZoneHVAC:TerminalUnit:VariableRefrigerantFlow, TZ_CORE_BOTTOM VRF TERMINAL UNIT, Design Size No Heating Supply Air Flow Rate [m3/s], 3.70413
 Component Sizing Information, Coil:Cooling:DX:VariableRefrigerantFlow, ZONE HVAC TERMINAL UNIT VARIABLE REFRIGERANT FLOW 1 COOLING COIL 5, Design Size Rated Air Flow Rate [m3/s], 3.70413
 Component Sizing Information, Coil:Cooling:DX:VariableRefrigerantFlow, ZONE HVAC TERMINAL UNIT VARIABLE REFRIGERANT FLOW 1 COOLING COIL 5, Design Size Gross Rated Total Cooling Capacity [W], 62353.82868
 Component Sizing Information, Coil:Cooling:DX:VariableRefrigerantFlow, ZONE HVAC TERMINAL UNIT VARIABLE REFRIGERANT FLOW 1 COOLING COIL 5, Design Size Gross Rated Sensible Heat Ratio, 0.80054
 Component Sizing Information, Coil:Heating:DX:VariableRefrigerantFlow, ZONE HVAC TERMINAL UNIT VARIABLE REFRIGERANT FLOW 1 HEATING COIL 5, Design Size Rated Air Flow Rate [m3/s], 3.70413
 Component Sizing Information, Coil:Heating:DX:VariableRefrigerantFlow, ZONE HVAC TERMINAL UNIT VARIABLE REFRIGERANT FLOW 1 HEATING COIL 5, Design Size Gross Rated Heating Capacity [W], 62353.82868
 Component Sizing Information, Fan:OnOff, TZ_CORE_BOTTOM VRF UNIT CYCLING FAN, Design Size Maximum Flow Rate [m3/s], 3.70413
 Component Sizing Information, AirTerminal:SingleDuct:ConstantVolume:NoReheat, TZ_CORE_GROUND AIR TERMINAL, Design Size Maximum Air Flow Rate [m3/s], 1.16166
 Component Sizing Information, ZoneHVAC:TerminalUnit:VariableRefrigerantFlow, TZ_CORE_GROUND VRF TERMINAL UNIT, Design Size Cooling Supply Air Flow Rate [m3/s], 3.22540
 Component Sizing Information, ZoneHVAC:TerminalUnit:VariableRefrigerantFlow, TZ_CORE_GROUND VRF TERMINAL UNIT, Design Size Heating Supply Air Flow Rate [m3/s], 3.22540
 Component Sizing Information, ZoneHVAC:TerminalUnit:VariableRefrigerantFlow, TZ_CORE_GROUND VRF TERMINAL UNIT, Design Size No Cooling Supply Air Flow Rate [m3/s], 3.22540
 Component Sizing Information, ZoneHVAC:TerminalUnit:VariableRefrigerantFlow, TZ_CORE_GROUND VRF TERMINAL UNIT, Design Size No Heating Supply Air Flow Rate [m3/s], 3.22540
 Component Sizing Information, Coil:Cooling:DX:VariableRefrigerantFlow, ZONE HVAC TERMINAL UNIT VARIABLE REFRIGERANT FLOW 1 COOLING COIL, Design Size Rated Air Flow Rate [m3/s], 3.22540
 Component Sizing Information, Coil:Cooling:DX:VariableRefrigerantFlow, ZONE HVAC TERMINAL UNIT VARIABLE REFRIGERANT FLOW 1 COOLING COIL, Design Size Gross Rated Total Cooling Capacity [W], 70677.95487
 Component Sizing Information, Coil:Cooling:DX:VariableRefrigerantFlow, ZONE HVAC TERMINAL UNIT VARIABLE REFRIGERANT FLOW 1 COOLING COIL, Design Size Gross Rated Sensible Heat Ratio, 0.73874
 Component Sizing Information, Coil:Heating:DX:VariableRefrigerantFlow, ZONE HVAC TERMINAL UNIT VARIABLE REFRIGERANT FLOW 1 HEATING COIL, Design Size Rated Air Flow Rate [m3/s], 3.22540
 Component Sizing Information, Coil:Heating:DX:VariableRefrigerantFlow, ZONE HVAC TERMINAL UNIT VARIABLE REFRIGERANT FLOW 1 HEATING COIL, Design Size Gross Rated Heating Capacity [W], 70677.95487
 Component Sizing Information, Fan:OnOff, TZ_CORE_GROUND VRF UNIT CYCLING FAN, Design Size Maximum Flow Rate [m3/s], 3.22540
 Component Sizing Information, AirTerminal:SingleDuct:ConstantVolume:NoReheat, TZ_CORE_MID AIR TERMINAL, Design Size Maximum Air Flow Rate [m3/s], 0.42469
 Component Sizing Information, ZoneHVAC:TerminalUnit:VariableRefrigerantFlow, TZ_CORE_MID VRF TERMINAL UNIT, Design Size Cooling Supply Air Flow Rate [m3/s], 2.22718
 Component Sizing Information, ZoneHVAC:TerminalUnit:VariableRefrigerantFlow, TZ_CORE_MID VRF TERMINAL UNIT, Design Size Heating Supply Air Flow Rate [m3/s], 2.22718
 Component Sizing Information, ZoneHVAC:TerminalUnit:VariableRefrigerantFlow, TZ_CORE_MID VRF TERMINAL UNIT, Design Size No Cooling Supply Air Flow Rate [m3/s], 2.22718
 Component Sizing Information, ZoneHVAC:TerminalUnit:VariableRefrigerantFlow, TZ_CORE_MID VRF TERMINAL UNIT, Design Size No Heating Supply Air Flow Rate [m3/s], 2.22718
 Component Sizing Information, Coil:Cooling:DX:VariableRefrigerantFlow, ZONE HVAC TERMINAL UNIT VARIABLE REFRIGERANT FLOW 1 COOLING COIL 6, Design Size Rated Air Flow Rate [m3/s], 2.22718
 Component Sizing Information, Coil:Cooling:DX:VariableRefrigerantFlow, ZONE HVAC TERMINAL UNIT VARIABLE REFRIGERANT FLOW 1 COOLING COIL 6, Design Size Gross Rated Total Cooling Capacity [W], 39973.32019
 Component Sizing Information, Coil:Cooling:DX:VariableRefrigerantFlow, ZONE HVAC TERMINAL UNIT VARIABLE REFRIGERANT FLOW 1 COOLING COIL 6, Design Size Gross Rated Sensible Heat Ratio, 0.80009
 Component Sizing Information, Coil:Heating:DX:VariableRefrigerantFlow, ZONE HVAC TERMINAL UNIT VARIABLE REFRIGERANT FLOW 1 HEATING COIL 6, Design Size Rated Air Flow Rate [m3/s], 2.22718
 Component Sizing Information, Coil:Heating:DX:VariableRefrigerantFlow, ZONE HVAC TERMINAL UNIT VARIABLE REFRIGERANT FLOW 1 HEATING COIL 6, Design Size Gross Rated Heating Capacity [W], 39973.32019
 Component Sizing Information, Fan:OnOff, TZ_CORE_MID VRF UNIT CYCLING FAN, Design Size Maximum Flow Rate [m3/s], 2.22718
 Component Sizing Information, AirTerminal:SingleDuct:ConstantVolume:NoReheat, TZ_CORE_TOP AIR TERMINAL, Design Size Maximum Air Flow Rate [m3/s], 0.42469
 Component Sizing Information, ZoneHVAC:TerminalUnit:VariableRefrigerantFlow, TZ_CORE_TOP VRF TERMINAL UNIT, Design Size Cooling Supply Air Flow Rate [m3/s], 2.24550
 Component Sizing Information, ZoneHVAC:TerminalUnit:VariableRefrigerantFlow, TZ_CORE_TOP VRF TERMINAL UNIT, Design Size Heating Supply Air Flow Rate [m3/s], 2.24550
 Component Sizing Information, ZoneHVAC:TerminalUnit:VariableRefrigerantFlow, TZ_CORE_TOP VRF TERMINAL UNIT, Design Size No Cooling Supply Air Flow Rate [m3/s], 2.24550
 Component Sizing Information, ZoneHVAC:TerminalUnit:VariableRefrigerantFlow, TZ_CORE_TOP VRF TERMINAL UNIT, Design Size No Heating Supply Air Flow Rate [m3/s], 2.24550
 Component Sizing Information, Coil:Cooling:DX:VariableRefrigerantFlow, ZONE HVAC TERMINAL UNIT VARIABLE REFRIGERANT FLOW 1 COOLING COIL 7, Design Size Rated Air Flow Rate [m3/s], 2.24550
 Component Sizing Information, Coil:Cooling:DX:VariableRefrigerantFlow, ZONE HVAC TERMINAL UNIT VARIABLE REFRIGERANT FLOW 1 COOLING COIL 7, Design Size Gross Rated Total Cooling Capacity [W], 40245.37806
 Component Sizing Information, Coil:Cooling:DX:VariableRefrigerantFlow, ZONE HVAC TERMINAL UNIT VARIABLE REFRIGERANT FLOW 1 COOLING COIL 7, Design Size Gross Rated Sensible Heat Ratio, 0.80057
 Component Sizing Information, Coil:Heating:DX:VariableRefrigerantFlow, ZONE HVAC TERMINAL UNIT VARIABLE REFRIGERANT FLOW 1 HEATING COIL 7, Design Size Rated Air Flow Rate [m3/s], 2.24550
 Component Sizing Information, Coil:Heating:DX:VariableRefrigerantFlow, ZONE HVAC TERMINAL UNIT VARIABLE REFRIGERANT FLOW 1 HEATING COIL 7, Design Size Gross Rated Heating Capacity [W], 40245.37806
 Component Sizing Information, Fan:OnOff, TZ_CORE_TOP VRF UNIT CYCLING FAN, Design Size Maximum Flow Rate [m3/s], 2.24550
 Component Sizing Information, AirTerminal:SingleDuct:ConstantVolume:NoReheat, TZ_PERIMETER_BOT_ZN_1 AIR TERMINAL, Design Size Maximum Air Flow Rate [m3/s], 8.95286E-002
 Component Sizing Information, ZoneHVAC:TerminalUnit:VariableRefrigerantFlow, TZ_PERIMETER_BOT_ZN_1 VRF TERMINAL UNIT, Design Size Cooling Supply Air Flow Rate [m3/s], 0.89836
 Component Sizing Information, ZoneHVAC:TerminalUnit:VariableRefrigerantFlow, TZ_PERIMETER_BOT_ZN_1 VRF TERMINAL UNIT, Design Size Heating Supply Air Flow Rate [m3/s], 0.89836
 Component Sizing Information, ZoneHVAC:TerminalUnit:VariableRefrigerantFlow, TZ_PERIMETER_BOT_ZN_1 VRF TERMINAL UNIT, Design Size No Cooling Supply Air Flow Rate [m3/s], 0.89836
 Component Sizing Information, ZoneHVAC:TerminalUnit:VariableRefrigerantFlow, TZ_PERIMETER_BOT_ZN_1 VRF TERMINAL UNIT, Design Size No Heating Supply Air Flow Rate [m3/s], 0.89836
 Component Sizing Information, Coil:Cooling:DX:VariableRefrigerantFlow, ZONE HVAC TERMINAL UNIT VARIABLE REFRIGERANT FLOW 1 COOLING COIL 8, Design Size Rated Air Flow Rate [m3/s], 0.89836
 Component Sizing Information, Coil:Cooling:DX:VariableRefrigerantFlow, ZONE HVAC TERMINAL UNIT VARIABLE REFRIGERANT FLOW 1 COOLING COIL 8, Design Size Gross Rated Total Cooling Capacity [W], 15545.32906
 Component Sizing Information, Coil:Cooling:DX:VariableRefrigerantFlow, ZONE HVAC TERMINAL UNIT VARIABLE REFRIGERANT FLOW 1 COOLING COIL 8, Design Size Gross Rated Sensible Heat Ratio, 0.80071
 Component Sizing Information, Coil:Heating:DX:VariableRefrigerantFlow, ZONE HVAC TERMINAL UNIT VARIABLE REFRIGERANT FLOW 1 HEATING COIL 8, Design Size Rated Air Flow Rate [m3/s], 0.89836
 Component Sizing Information, Coil:Heating:DX:VariableRefrigerantFlow, ZONE HVAC TERMINAL UNIT VARIABLE REFRIGERANT FLOW 1 HEATING COIL 8, Design Size Gross Rated Heating Capacity [W], 15545.32906
 Component Sizing Information, Fan:OnOff, TZ_PERIMETER_BOT_ZN_1 VRF UNIT CYCLING FAN, Design Size Maximum Flow Rate [m3/s], 0.89836
 Component Sizing Information, AirTerminal:SingleDuct:ConstantVolume:NoReheat, TZ_PERIMETER_BOT_ZN_2 AIR TERMINAL, Design Size Maximum Air Flow Rate [m3/s], 5.66790E-002
 Component Sizing Information, ZoneHVAC:TerminalUnit:VariableRefrigerantFlow, TZ_PERIMETER_BOT_ZN_2 VRF TERMINAL UNIT, Design Size Cooling Supply Air Flow Rate [m3/s], 0.82932
 Component Sizing Information, ZoneHVAC:TerminalUnit:VariableRefrigerantFlow, TZ_PERIMETER_BOT_ZN_2 VRF TERMINAL UNIT, Design Size Heating Supply Air Flow Rate [m3/s], 0.82932
 Component Sizing Information, ZoneHVAC:TerminalUnit:VariableRefrigerantFlow, TZ_PERIMETER_BOT_ZN_2 VRF TERMINAL UNIT, Design Size No Cooling Supply Air Flow Rate [m3/s], 0.82932
 Component Sizing Information, ZoneHVAC:TerminalUnit:VariableRefrigerantFlow, TZ_PERIMETER_BOT_ZN_2 VRF TERMINAL UNIT, Design Size No Heating Supply Air Flow Rate [m3/s], 0.82932
 Component Sizing Information, Coil:Cooling:DX:VariableRefrigerantFlow, ZONE HVAC TERMINAL UNIT VARIABLE REFRIGERANT FLOW 1 COOLING COIL 9, Design Size Rated Air Flow Rate [m3/s], 0.82932
 Component Sizing Information, Coil:Cooling:DX:VariableRefrigerantFlow, ZONE HVAC TERMINAL UNIT VARIABLE REFRIGERANT FLOW 1 COOLING COIL 9, Design Size Gross Rated Total Cooling Capacity [W], 13728.24087
 Component Sizing Information, Coil:Cooling:DX:VariableRefrigerantFlow, ZONE HVAC TERMINAL UNIT VARIABLE REFRIGERANT FLOW 1 COOLING COIL 9, Design Size Gross Rated Sensible Heat Ratio, 0.80066
 Component Sizing Information, Coil:Heating:DX:VariableRefrigerantFlow, ZONE HVAC TERMINAL UNIT VARIABLE REFRIGERANT FLOW 1 HEATING COIL 9, Design Size Rated Air Flow Rate [m3/s], 0.82932
 Component Sizing Information, Coil:Heating:DX:VariableRefrigerantFlow, ZONE HVAC TERMINAL UNIT VARIABLE REFRIGERANT FLOW 1 HEATING COIL 9, Design Size Gross Rated Heating Capacity [W], 13728.24087
 Component Sizing Information, Fan:OnOff, TZ_PERIMETER_BOT_ZN_2 VRF UNIT CYCLING FAN, Design Size Maximum Flow Rate [m3/s], 0.82932
 Component Sizing Information, AirTerminal:SingleDuct:ConstantVolume:NoReheat, TZ_PERIMETER_BOT_ZN_3 AIR TERMINAL, Design Size Maximum Air Flow Rate [m3/s], 8.95286E-002
 Component Sizing Information, ZoneHVAC:TerminalUnit:VariableRefrigerantFlow, TZ_PERIMETER_BOT_ZN_3 VRF TERMINAL UNIT, Design Size Cooling Supply Air Flow Rate [m3/s], 0.61941
 Component Sizing Information, ZoneHVAC:TerminalUnit:VariableRefrigerantFlow, TZ_PERIMETER_BOT_ZN_3 VRF TERMINAL UNIT, Design Size Heating Supply Air Flow Rate [m3/s], 0.61941
 Component Sizing Information, ZoneHVAC:TerminalUnit:VariableRefrigerantFlow, TZ_PERIMETER_BOT_ZN_3 VRF TERMINAL UNIT, Design Size No Cooling Supply Air Flow Rate [m3/s], 0.61941
 Component Sizing Information, ZoneHVAC:TerminalUnit:VariableRefrigerantFlow, TZ_PERIMETER_BOT_ZN_3 VRF TERMINAL UNIT, Design Size No Heating Supply Air Flow Rate [m3/s], 0.61941
 Component Sizing Information, Coil:Cooling:DX:VariableRefrigerantFlow, ZONE HVAC TERMINAL UNIT VARIABLE REFRIGERANT FLOW 1 COOLING COIL 10, Design Size Rated Air Flow Rate [m3/s], 0.61941
 Component Sizing Information, Coil:Cooling:DX:VariableRefrigerantFlow, ZONE HVAC TERMINAL UNIT VARIABLE REFRIGERANT FLOW 1 COOLING COIL 10, Design Size Gross Rated Total Cooling Capacity [W], 11204.00711
 Component Sizing Information, Coil:Cooling:DX:VariableRefrigerantFlow, ZONE HVAC TERMINAL UNIT VARIABLE REFRIGERANT FLOW 1 COOLING COIL 10, Design Size Gross Rated Sensible Heat Ratio, 0.80046
 Component Sizing Information, Coil:Heating:DX:VariableRefrigerantFlow, ZONE HVAC TERMINAL UNIT VARIABLE REFRIGERANT FLOW 1 HEATING COIL 10, Design Size Rated Air Flow Rate [m3/s], 0.61941
 Component Sizing Information, Coil:Heating:DX:VariableRefrigerantFlow, ZONE HVAC TERMINAL UNIT VARIABLE REFRIGERANT FLOW 1 HEATING COIL 10, Design Size Gross Rated Heating Capacity [W], 11204.00711
 Component Sizing Information, Fan:OnOff, TZ_PERIMETER_BOT_ZN_3 VRF UNIT CYCLING FAN, Design Size Maximum Flow Rate [m3/s], 0.61941
 Component Sizing Information, AirTerminal:SingleDuct:ConstantVolume:NoReheat, TZ_PERIMETER_BOT_ZN_4 AIR TERMINAL, Design Size Maximum Air Flow Rate [m3/s], 5.66753E-002
 Component Sizing Information, ZoneHVAC:TerminalUnit:VariableRefrigerantFlow, TZ_PERIMETER_BOT_ZN_4 VRF TERMINAL UNIT, Design Size Cooling Supply Air Flow Rate [m3/s], 0.82570
 Component Sizing Information, ZoneHVAC:TerminalUnit:VariableRefrigerantFlow, TZ_PERIMETER_BOT_ZN_4 VRF TERMINAL UNIT, Design Size Heating Supply Air Flow Rate [m3/s], 0.82570
 Component Sizing Information, ZoneHVAC:TerminalUnit:VariableRefrigerantFlow, TZ_PERIMETER_BOT_ZN_4 VRF TERMINAL UNIT, Design Size No Cooling Supply Air Flow Rate [m3/s], 0.82570
 Component Sizing Information, ZoneHVAC:TerminalUnit:VariableRefrigerantFlow, TZ_PERIMETER_BOT_ZN_4 VRF TERMINAL UNIT, Design Size No Heating Supply Air Flow Rate [m3/s], 0.82570
 Component Sizing Information, Coil:Cooling:DX:VariableRefrigerantFlow, ZONE HVAC TERMINAL UNIT VARIABLE REFRIGERANT FLOW 1 COOLING COIL 11, Design Size Rated Air Flow Rate [m3/s], 0.82570
 Component Sizing Information, Coil:Cooling:DX:VariableRefrigerantFlow, ZONE HVAC TERMINAL UNIT VARIABLE REFRIGERANT FLOW 1 COOLING COIL 11, Design Size Gross Rated Total Cooling Capacity [W], 13775.88340
 Component Sizing Information, Coil:Cooling:DX:VariableRefrigerantFlow, ZONE HVAC TERMINAL UNIT VARIABLE REFRIGERANT FLOW 1 COOLING COIL 11, Design Size Gross Rated Sensible Heat Ratio, 0.80078
 Component Sizing Information, Coil:Heating:DX:VariableRefrigerantFlow, ZONE HVAC TERMINAL UNIT VARIABLE REFRIGERANT FLOW 1 HEATING COIL 11, Design Size Rated Air Flow Rate [m3/s], 0.82570
 Component Sizing Information, Coil:Heating:DX:VariableRefrigerantFlow, ZONE HVAC TERMINAL UNIT VARIABLE REFRIGERANT FLOW 1 HEATING COIL 11, Design Size Gross Rated Heating Capacity [W], 13775.88340
 Component Sizing Information, Fan:OnOff, TZ_PERIMETER_BOT_ZN_4 VRF UNIT CYCLING FAN, Design Size Maximum Flow Rate [m3/s], 0.82570
 Component Sizing Information, AirTerminal:SingleDuct:ConstantVolume:NoReheat, TZ_PERIMETER_GROUND_ZN_1 AIR TERMINAL, Design Size Maximum Air Flow Rate [m3/s], 0.24489
 Component Sizing Information, ZoneHVAC:TerminalUnit:VariableRefrigerantFlow, TZ_PERIMETER_GROUND_ZN_1 VRF TERMINAL UNIT, Design Size Cooling Supply Air Flow Rate [m3/s], 1.42650
 Component Sizing Information, ZoneHVAC:TerminalUnit:VariableRefrigerantFlow, TZ_PERIMETER_GROUND_ZN_1 VRF TERMINAL UNIT, Design Size Heating Supply Air Flow Rate [m3/s], 1.42650
 Component Sizing Information, ZoneHVAC:TerminalUnit:VariableRefrigerantFlow, TZ_PERIMETER_GROUND_ZN_1 VRF TERMINAL UNIT, Design Size No Cooling Supply Air Flow Rate [m3/s], 1.42650
 Component Sizing Information, ZoneHVAC:TerminalUnit:VariableRefrigerantFlow, TZ_PERIMETER_GROUND_ZN_1 VRF TERMINAL UNIT, Design Size No Heating Supply Air Flow Rate [m3/s], 1.42650
 Component Sizing Information, Coil:Cooling:DX:VariableRefrigerantFlow, ZONE HVAC TERMINAL UNIT VARIABLE REFRIGERANT FLOW 1 COOLING COIL 1, Design Size Rated Air Flow Rate [m3/s], 1.42650
 Component Sizing Information, Coil:Cooling:DX:VariableRefrigerantFlow, ZONE HVAC TERMINAL UNIT VARIABLE REFRIGERANT FLOW 1 COOLING COIL 1, Design Size Gross Rated Total Cooling Capacity [W], 26354.47874
 Component Sizing Information, Coil:Cooling:DX:VariableRefrigerantFlow, ZONE HVAC TERMINAL UNIT VARIABLE REFRIGERANT FLOW 1 COOLING COIL 1, Design Size Gross Rated Sensible Heat Ratio, 0.80042
 Component Sizing Information, Coil:Heating:DX:VariableRefrigerantFlow, ZONE HVAC TERMINAL UNIT VARIABLE REFRIGERANT FLOW 1 HEATING COIL 1, Design Size Rated Air Flow Rate [m3/s], 1.42650
 Component Sizing Information, Coil:Heating:DX:VariableRefrigerantFlow, ZONE HVAC TERMINAL UNIT VARIABLE REFRIGERANT FLOW 1 HEATING COIL 1, Design Size Gross Rated Heating Capacity [W], 26354.47874
 Component Sizing Information, Fan:OnOff, TZ_PERIMETER_GROUND_ZN_1 VRF UNIT CYCLING FAN, Design Size Maximum Flow Rate [m3/s], 1.42650
 Component Sizing Information, AirTerminal:SingleDuct:ConstantVolume:NoReheat, TZ_PERIMETER_GROUND_ZN_2 AIR TERMINAL, Design Size Maximum Air Flow Rate [m3/s], 0.15503
 Component Sizing Information, ZoneHVAC:TerminalUnit:VariableRefrigerantFlow, TZ_PERIMETER_GROUND_ZN_2 VRF TERMINAL UNIT, Design Size Cooling Supply Air Flow Rate [m3/s], 1.42535
 Component Sizing Information, ZoneHVAC:TerminalUnit:VariableRefrigerantFlow, TZ_PERIMETER_GROUND_ZN_2 VRF TERMINAL UNIT, Design Size Heating Supply Air Flow Rate [m3/s], 1.42535
 Component Sizing Information, ZoneHVAC:TerminalUnit:VariableRefrigerantFlow, TZ_PERIMETER_GROUND_ZN_2 VRF TERMINAL UNIT, Design Size No Cooling Supply Air Flow Rate [m3/s], 1.42535
 Component Sizing Information, ZoneHVAC:TerminalUnit:VariableRefrigerantFlow, TZ_PERIMETER_GROUND_ZN_2 VRF TERMINAL UNIT, Design Size No Heating Supply Air Flow Rate [m3/s], 1.42535
 Component Sizing Information, Coil:Cooling:DX:VariableRefrigerantFlow, ZONE HVAC TERMINAL UNIT VARIABLE REFRIGERANT FLOW 1 COOLING COIL 2, Design Size Rated Air Flow Rate [m3/s], 1.42535
 Component Sizing Information, Coil:Cooling:DX:VariableRefrigerantFlow, ZONE HVAC TERMINAL UNIT VARIABLE REFRIGERANT FLOW 1 COOLING COIL 2, Design Size Gross Rated Total Cooling Capacity [W], 24145.81088
 Component Sizing Information, Coil:Cooling:DX:VariableRefrigerantFlow, ZONE HVAC TERMINAL UNIT VARIABLE REFRIGERANT FLOW 1 COOLING COIL 2, Design Size Gross Rated Sensible Heat Ratio, 0.80026
 Component Sizing Information, Coil:Heating:DX:VariableRefrigerantFlow, ZONE HVAC TERMINAL UNIT VARIABLE REFRIGERANT FLOW 1 HEATING COIL 2, Design Size Rated Air Flow Rate [m3/s], 1.42535
 Component Sizing Information, Coil:Heating:DX:VariableRefrigerantFlow, ZONE HVAC TERMINAL UNIT VARIABLE REFRIGERANT FLOW 1 HEATING COIL 2, Design Size Gross Rated Heating Capacity [W], 24145.81088
 Component Sizing Information, Fan:OnOff, TZ_PERIMETER_GROUND_ZN_2 VRF UNIT CYCLING FAN, Design Size Maximum Flow Rate [m3/s], 1.42535
 Component Sizing Information, AirTerminal:SingleDuct:ConstantVolume:NoReheat, TZ_PERIMETER_GROUND_ZN_3 AIR TERMINAL, Design Size Maximum Air Flow Rate [m3/s], 0.24489
 Component Sizing Information, ZoneHVAC:TerminalUnit:VariableRefrigerantFlow, TZ_PERIMETER_GROUND_ZN_3 VRF TERMINAL UNIT, Design Size Cooling Supply Air Flow Rate [m3/s], 0.90173
 Component Sizing Information, ZoneHVAC:TerminalUnit:VariableRefrigerantFlow, TZ_PERIMETER_GROUND_ZN_3 VRF TERMINAL UNIT, Design Size Heating Supply Air Flow Rate [m3/s], 0.90173
 Component Sizing Information, ZoneHVAC:TerminalUnit:VariableRefrigerantFlow, TZ_PERIMETER_GROUND_ZN_3 VRF TERMINAL UNIT, Design Size No Cooling Supply Air Flow Rate [m3/s], 0.90173
 Component Sizing Information, ZoneHVAC:TerminalUnit:VariableRefrigerantFlow, TZ_PERIMETER_GROUND_ZN_3 VRF TERMINAL UNIT, Design Size No Heating Supply Air Flow Rate [m3/s], 0.90173
 Component Sizing Information, Coil:Cooling:DX:VariableRefrigerantFlow, ZONE HVAC TERMINAL UNIT VARIABLE REFRIGERANT FLOW 1 COOLING COIL 3, Design Size Rated Air Flow Rate [m3/s], 0.90173
 Component Sizing Information, Coil:Cooling:DX:VariableRefrigerantFlow, ZONE HVAC TERMINAL UNIT VARIABLE REFRIGERANT FLOW 1 COOLING COIL 3, Design Size Gross Rated Total Cooling Capacity [W], 18320.05931
 Component Sizing Information, Coil:Cooling:DX:VariableRefrigerantFlow, ZONE HVAC TERMINAL UNIT VARIABLE REFRIGERANT FLOW 1 COOLING COIL 3, Design Size Gross Rated Sensible Heat Ratio, 0.76656
[...]
 Component Sizing Information, ZoneHVAC:TerminalUnit:VariableRefrigerantFlow, TZ_PERIMETER_TOP_ZN_3 VRF TERMINAL UNIT, Design Size Cooling Supply Air Flow Rate [m3/s], 0.62480
 Component Sizing Information, ZoneHVAC:TerminalUnit:VariableRefrigerantFlow, TZ_PERIMETER_TOP_ZN_3 VRF TERMINAL UNIT, Design Size Heating Supply Air Flow Rate [m3/s], 0.62480
 Component Sizing Information, ZoneHVAC:TerminalUnit:VariableRefrigerantFlow, TZ_PERIMETER_TOP_ZN_3 VRF TERMINAL UNIT, Design Size No Cooling Supply Air Flow Rate [m3/s], 0.62480
 Component Sizing Information, ZoneHVAC:TerminalUnit:VariableRefrigerantFlow, TZ_PERIMETER_TOP_ZN_3 VRF TERMINAL UNIT, Design Size No Heating Supply Air Flow Rate [m3/s], 0.62480
 Component Sizing Information, Coil:Cooling:DX:VariableRefrigerantFlow, ZONE HVAC TERMINAL UNIT VARIABLE REFRIGERANT FLOW 1 COOLING COIL 18, Design Size Rated Air Flow Rate [m3/s], 0.62480
 Component Sizing Information, Coil:Cooling:DX:VariableRefrigerantFlow, ZONE HVAC TERMINAL UNIT VARIABLE REFRIGERANT FLOW 1 COOLING COIL 18, Design Size Gross Rated Total Cooling Capacity [W], 11321.38878
 Component Sizing Information, Coil:Cooling:DX:VariableRefrigerantFlow, ZONE HVAC TERMINAL UNIT VARIABLE REFRIGERANT FLOW 1 COOLING COIL 18, Design Size Gross Rated Sensible Heat Ratio, 0.80087
 Component Sizing Information, Coil:Heating:DX:VariableRefrigerantFlow, ZONE HVAC TERMINAL UNIT VARIABLE REFRIGERANT FLOW 1 HEATING COIL 18, Design Size Rated Air Flow Rate [m3/s], 0.62480
 Component Sizing Information, Coil:Heating:DX:VariableRefrigerantFlow, ZONE HVAC TERMINAL UNIT VARIABLE REFRIGERANT FLOW 1 HEATING COIL 18, Design Size Gross Rated Heating Capacity [W], 11321.38878
 Component Sizing Information, Fan:OnOff, TZ_PERIMETER_TOP_ZN_3 VRF UNIT CYCLING FAN, Design Size Maximum Flow Rate [m3/s], 0.62480
 Component Sizing Information, AirTerminal:SingleDuct:ConstantVolume:NoReheat, TZ_PERIMETER_TOP_ZN_4 AIR TERMINAL, Design Size Maximum Air Flow Rate [m3/s], 5.66753E-002
 Component Sizing Information, ZoneHVAC:TerminalUnit:VariableRefrigerantFlow, TZ_PERIMETER_TOP_ZN_4 VRF TERMINAL UNIT, Design Size Cooling Supply Air Flow Rate [m3/s], 0.83172
 Component Sizing Information, ZoneHVAC:TerminalUnit:VariableRefrigerantFlow, TZ_PERIMETER_TOP_ZN_4 VRF TERMINAL UNIT, Design Size Heating Supply Air Flow Rate [m3/s], 0.83172
 Component Sizing Information, ZoneHVAC:TerminalUnit:VariableRefrigerantFlow, TZ_PERIMETER_TOP_ZN_4 VRF TERMINAL UNIT, Design Size No Cooling Supply Air Flow Rate [m3/s], 0.83172
 Component Sizing Information, ZoneHVAC:TerminalUnit:VariableRefrigerantFlow, TZ_PERIMETER_TOP_ZN_4 VRF TERMINAL UNIT, Design Size No Heating Supply Air Flow Rate [m3/s], 0.83172
 Component Sizing Information, Coil:Cooling:DX:VariableRefrigerantFlow, ZONE HVAC TERMINAL UNIT VARIABLE REFRIGERANT FLOW 1 COOLING COIL 19, Design Size Rated Air Flow Rate [m3/s], 0.83172
 Component Sizing Information, Coil:Cooling:DX:VariableRefrigerantFlow, ZONE HVAC TERMINAL UNIT VARIABLE REFRIGERANT FLOW 1 COOLING COIL 19, Design Size Gross Rated Total Cooling Capacity [W], 13893.61065
 Component Sizing Information, Coil:Cooling:DX:VariableRefrigerantFlow, ZONE HVAC TERMINAL UNIT VARIABLE REFRIGERANT FLOW 1 COOLING COIL 19, Design Size Gross Rated Sensible Heat Ratio, 0.80033
 Component Sizing Information, Coil:Heating:DX:VariableRefrigerantFlow, ZONE HVAC TERMINAL UNIT VARIABLE REFRIGERANT FLOW 1 HEATING COIL 19, Design Size Rated Air Flow Rate [m3/s], 0.83172
 Component Sizing Information, Coil:Heating:DX:VariableRefrigerantFlow, ZONE HVAC TERMINAL UNIT VARIABLE REFRIGERANT FLOW 1 HEATING COIL 19, Design Size Gross Rated Heating Capacity [W], 13893.61065
 Component Sizing Information, Fan:OnOff, TZ_PERIMETER_TOP_ZN_4 VRF UNIT CYCLING FAN, Design Size Maximum Flow Rate [m3/s], 0.83172
 Component Sizing Information, AirConditioner:VariableRefrigerantFlow, 15 ZONE VRF SYSTEM, Design Size Rated Total Cooling Capacity (gross) [W], 304264.46764
 Component Sizing Information, AirConditioner:VariableRefrigerantFlow, 15 ZONE VRF SYSTEM, Design Size Rated Total Heating Capacity [W], 304264.46764
 Component Sizing Information, AirConditioner:VariableRefrigerantFlow, 15 ZONE VRF SYSTEM, Design Size Evaporative Condenser Air Flow Rate [m3/s], 34.68615
 Component Sizing Information, AirConditioner:VariableRefrigerantFlow, 15 ZONE VRF SYSTEM, Design Size Evaporative Condenser Pump Rated Power Consumption [W], 1297.99222
 VRF System Information, AirConditioner:VariableRefrigerantFlow, 15 ZONE VRF SYSTEM, 1.00000, 1.00000, 0.94555, 1.00000
 Component Sizing Information, AirLoopHVAC, 15 ZONE DOAS, Sum of Air Terminal Maximum Heating Flow Rates [m3/s], 0.00000
 Component Sizing Information, AirLoopHVAC, 15 ZONE DOAS, Sum of Air Terminal Minimum Heating Flow Rates [m3/s], 0.00000
 Component Sizing Information, AirLoopHVAC, 15 ZONE DOAS, Sum of Air Terminal Maximum Flow Rates [m3/s], 2.15131
 Component Sizing Information, AirLoopHVAC, 15 ZONE DOAS, Adjusted Heating Design Air Flow Rate [m3/s], 2.15131
 Component Sizing Information, AirLoopHVAC, 15 ZONE DOAS, Adjusted Cooling Design Air Flow Rate [m3/s], 2.15131
 Component Sizing Information, AirLoopHVAC, 15 ZONE DOAS, Adjusted Main Design Air Flow Rate [m3/s], 2.15131
 Component Sizing Information, AirLoopHVAC, 15 ZONE DOAS, User Heating Air Flow Ratio [], 1.00000
 Component Sizing Information, AirLoopHVAC, 15 ZONE DOAS, Calculated Heating Air Flow Ratio [], 1.00000
 Component Sizing Information, AirLoopHVAC, 5 ZONE DOAS, Sum of Air Terminal Maximum Heating Flow Rates [m3/s], 0.00000
 Component Sizing Information, AirLoopHVAC, 5 ZONE DOAS, Sum of Air Terminal Minimum Heating Flow Rates [m3/s], 0.00000
 Component Sizing Information, AirLoopHVAC, 5 ZONE DOAS, Sum of Air Terminal Maximum Flow Rates [m3/s], 1.96149
 Component Sizing Information, AirLoopHVAC, 5 ZONE DOAS, Adjusted Heating Design Air Flow Rate [m3/s], 1.96149
 Component Sizing Information, AirLoopHVAC, 5 ZONE DOAS, Adjusted Cooling Design Air Flow Rate [m3/s], 1.96149
 Component Sizing Information, AirLoopHVAC, 5 ZONE DOAS, Adjusted Main Design Air Flow Rate [m3/s], 1.96149
 Component Sizing Information, AirLoopHVAC, 5 ZONE DOAS, User Heating Air Flow Ratio [], 1.00000
 Component Sizing Information, AirLoopHVAC, 5 ZONE DOAS, Calculated Heating Air Flow Ratio [], 1.00000
 Component Sizing Information, AirLoopHVAC, 15 ZONE DOAS, Design Supply Air Flow Rate [m3/s], 2.15131
 Component Sizing Information, AirLoopHVAC, 5 ZONE DOAS, Design Supply Air Flow Rate [m3/s], 1.96149
 Component Sizing Information, Fan:ConstantVolume, DOAS EXHAUST FAN 1, Design Size Maximum Flow Rate [m3/s], 2.15131
!<Controller:MechanicalVentilation>,Name,Availability Schedule Name,Demand Controlled Ventilation {Yes/No},System Outdoor Air Method,Zone Maximum Outdoor Air Fraction,Number of Zones,Zone Name,DSOA Name,DSZAD Name
 Controller:MechanicalVentilation,15 ZONE DOAS MECHANICAL VENTILATION CONTROLLER,15 ZONE DOAS OCC SCH,No,ZoneSum,1.00,15,TZ_CORE_BOTTOM,OFFICE WHOLEBUILDING - MD OFFICE VENTILATION,TZ_CORE_BOTTOM DESIGN SPEC ZONE AIR DIST,TZ_CORE_MID,OFFICE WHOLEBUILDING - MD OFFICE VENTILATION,TZ_CORE_MID DESIGN SPEC ZONE AIR DIST,TZ_CORE_TOP,OFFICE WHOLEBUILDING - MD OFFICE VENTILATION,TZ_CORE_TOP DESIGN SPEC ZONE AIR DIST,TZ_PERIMETER_BOT_ZN_1,OFFICE WHOLEBUILDING - MD OFFICE VENTILATION,TZ_PERIMETER_BOT_ZN_1 DESIGN SPEC ZONE AIR DIST,TZ_PERIMETER_BOT_ZN_2,OFFICE WHOLEBUILDING - MD OFFICE VENTILATION,TZ_PERIMETER_BOT_ZN_2 DESIGN SPEC ZONE AIR DIST,TZ_PERIMETER_BOT_ZN_3,OFFICE WHOLEBUILDING - MD OFFICE VENTILATION,TZ_PERIMETER_BOT_ZN_3 DESIGN SPEC ZONE AIR DIST,TZ_PERIMETER_BOT_ZN_4,OFFICE WHOLEBUILDING - MD OFFICE VENTILATION,TZ_PERIMETER_BOT_ZN_4 DESIGN SPEC ZONE AIR DIST,TZ_PERIMETER_MID_ZN_1,OFFICE WHOLEBUILDING - MD OFFICE VENTILATION,TZ_PERIMETER_MID_ZN_1 DESIGN SPEC ZONE AIR DIST,TZ_PERIMETER_MID_ZN_2,OFFICE WHOLEBUILDING - MD OFFICE VENTILATION,TZ_PERIMETER_MID_ZN_2 DESIGN SPEC ZONE AIR DIST,TZ_PERIMETER_MID_ZN_3,OFFICE WHOLEBUILDING - MD OFFICE VENTILATION,TZ_PERIMETER_MID_ZN_3 DESIGN SPEC ZONE AIR DIST,TZ_PERIMETER_MID_ZN_4,OFFICE WHOLEBUILDING - MD OFFICE VENTILATION,TZ_PERIMETER_MID_ZN_4 DESIGN SPEC ZONE AIR DIST,TZ_PERIMETER_TOP_ZN_1,OFFICE WHOLEBUILDING - MD OFFICE VENTILATION,TZ_PERIMETER_TOP_ZN_1 DESIGN SPEC ZONE AIR DIST,TZ_PERIMETER_TOP_ZN_2,OFFICE WHOLEBUILDING - MD OFFICE VENTILATION,TZ_PERIMETER_TOP_ZN_2 DESIGN SPEC ZONE AIR DIST,TZ_PERIMETER_TOP_ZN_3,OFFICE WHOLEBUILDING - MD OFFICE VENTILATION,TZ_PERIMETER_TOP_ZN_3 DESIGN SPEC ZONE AIR DIST,TZ_PERIMETER_TOP_ZN_4,OFFICE WHOLEBUILDING - MD OFFICE VENTILATION,TZ_PERIMETER_TOP_ZN_4 DESIGN SPEC ZONE AIR DIST
 Controller:MechanicalVentilation,5 ZONE DOAS MECHANICAL VENTILATION CONTROLLER,5 ZONE DOAS OCC SCH,No,ZoneSum,1.00,5,TZ_CORE_GROUND,90.1-2010 - RETAIL - RETAIL VENTILATION,TZ_CORE_GROUND DESIGN SPEC ZONE AIR DIST,TZ_PERIMETER_GROUND_ZN_1,90.1-2010 - RETAIL - RETAIL VENTILATION,TZ_PERIMETER_GROUND_ZN_1 DESIGN SPEC ZONE AIR DIST,TZ_PERIMETER_GROUND_ZN_2,90.1-2010 - RETAIL - RETAIL VENTILATION,TZ_PERIMETER_GROUND_ZN_2 DESIGN SPEC ZONE AIR DIST,TZ_PERIMETER_GROUND_ZN_3,90.1-2010 - RETAIL - RETAIL VENTILATION,TZ_PERIMETER_GROUND_ZN_3 DESIGN SPEC ZONE AIR DIST,TZ_PERIMETER_GROUND_ZN_4,90.1-2010 - RETAIL - RETAIL VENTILATION,TZ_PERIMETER_GROUND_ZN_4 DESIGN SPEC ZONE AIR DIST
 Component Sizing Information, Controller:OutdoorAir, 15 ZONE DOAS OUTDOOR AIR CONTROLLER, Maximum Outdoor Air Flow Rate [m3/s], 2.15131
 Component Sizing Information, Controller:OutdoorAir, 15 ZONE DOAS OUTDOOR AIR CONTROLLER, Minimum Outdoor Air Flow Rate [m3/s], 2.15131
 Component Sizing Information, HeatExchanger:AirToAir:SensibleAndLatent, 15 ZONE DOAS HEAT EXCHANGER, Design Size Nominal Supply Air Flow Rate [m3/s], 2.15131
 Component Sizing Information, Coil:Cooling:DX:TwoSpeed, 15 ZONE DOAS 2SPD DX CLG COIL, Design Size High Speed Rated Air Flow Rate [m3/s], 2.15131
 Component Sizing Information, Coil:Cooling:DX:TwoSpeed, 15 ZONE DOAS 2SPD DX CLG COIL, Design Size High Speed Gross Rated Total Cooling Capacity [W], 53422.09758
 Component Sizing Information, Coil:Cooling:DX:TwoSpeed, 15 ZONE DOAS 2SPD DX CLG COIL, Design Size High Speed Rated Sensible Heat Ratio, 0.69808
 Component Sizing Information, Coil:Cooling:DX:TwoSpeed, 15 ZONE DOAS 2SPD DX CLG COIL, Design Size Low Speed Rated Air Flow Rate [m3/s], 0.71703
 Component Sizing Information, Coil:Cooling:DX:TwoSpeed, 15 ZONE DOAS 2SPD DX CLG COIL, Design Size Low Speed Gross Rated Total Cooling Capacity [W], 17805.58512
 Component Sizing Information, Coil:Cooling:DX:TwoSpeed, 15 ZONE DOAS 2SPD DX CLG COIL, User-Specified Low Speed Gross Rated Sensible Heat Ratio, 0.69000
 Component Sizing Information, Coil:Heating:DX:SingleSpeed, 15 ZONE DOAS HTG COIL 182 CLG KBTU/HR 3.3COPH, Design Size Rated Air Flow Rate [m3/s], 2.15131
 Component Sizing Information, Coil:Heating:DX:SingleSpeed, 15 ZONE DOAS HTG COIL 182 CLG KBTU/HR 3.3COPH, Design Size Gross Rated Heating Capacity [W], 53422.09758
! <DX Heating Coil Standard Rating Information>, Component Type, Component Name, High Temperature Heating (net) Rating Capacity {W}, Low Temperature Heating (net) Rating Capacity {W}, HSPF {Btu/W-h}, Region Number
 DX Heating Coil Standard Rating Information, Coil:Heating:DX:SingleSpeed, 15 ZONE DOAS HTG COIL 182 CLG KBTU/HR 3.3COPH, 55038.0, 27186.9, 7.61, 4
 Component Sizing Information, Coil:Heating:Electric, 15 ZONE DOAS BACKUP HTG COIL, Design Size Nominal Capacity [W], 104503.65040
 Component Sizing Information, Fan:ConstantVolume, DOAS SUPPLY FAN 1, Design Size Maximum Flow Rate [m3/s], 2.15131
 Component Sizing Information, Fan:ConstantVolume, DOAS EXHAUST FAN, Design Size Maximum Flow Rate [m3/s], 1.96149
 Component Sizing Information, Controller:OutdoorAir, 5 ZONE DOAS OUTDOOR AIR CONTROLLER, Maximum Outdoor Air Flow Rate [m3/s], 1.96149
 Component Sizing Information, Controller:OutdoorAir, 5 ZONE DOAS OUTDOOR AIR CONTROLLER, Minimum Outdoor Air Flow Rate [m3/s], 1.96149
 Component Sizing Information, HeatExchanger:AirToAir:SensibleAndLatent, 5 ZONE DOAS HEAT EXCHANGER, Design Size Nominal Supply Air Flow Rate [m3/s], 1.96149
 Component Sizing Information, Coil:Cooling:DX:TwoSpeed, 5 ZONE DOAS 2SPD DX CLG COIL, Design Size High Speed Rated Air Flow Rate [m3/s], 1.96149
 Component Sizing Information, Coil:Cooling:DX:TwoSpeed, 5 ZONE DOAS 2SPD DX CLG COIL, Design Size High Speed Gross Rated Total Cooling Capacity [W], 48708.38309
 Component Sizing Information, Coil:Cooling:DX:TwoSpeed, 5 ZONE DOAS 2SPD DX CLG COIL, Design Size High Speed Rated Sensible Heat Ratio, 0.69808
 Component Sizing Information, Coil:Cooling:DX:TwoSpeed, 5 ZONE DOAS 2SPD DX CLG COIL, Design Size Low Speed Rated Air Flow Rate [m3/s], 0.65376
 Component Sizing Information, Coil:Cooling:DX:TwoSpeed, 5 ZONE DOAS 2SPD DX CLG COIL, Design Size Low Speed Gross Rated Total Cooling Capacity [W], 16234.50408
 Component Sizing Information, Coil:Cooling:DX:TwoSpeed, 5 ZONE DOAS 2SPD DX CLG COIL, User-Specified Low Speed Gross Rated Sensible Heat Ratio, 0.69000
 Component Sizing Information, Coil:Heating:DX:SingleSpeed, 5 ZONE DOAS HTG COIL 166 CLG KBTU/HR 3.3COPH, Design Size Rated Air Flow Rate [m3/s], 1.96149
 Component Sizing Information, Coil:Heating:DX:SingleSpeed, 5 ZONE DOAS HTG COIL 166 CLG KBTU/HR 3.3COPH, Design Size Gross Rated Heating Capacity [W], 48708.38309
 DX Heating Coil Standard Rating Information, Coil:Heating:DX:SingleSpeed, 5 ZONE DOAS HTG COIL 166 CLG KBTU/HR 3.3COPH, 50181.7, 24788.1, 7.62, 4
 Component Sizing Information, Coil:Heating:Electric, 5 ZONE DOAS BACKUP HTG COIL, Design Size Nominal Capacity [W], 95282.74007
 Component Sizing Information, Fan:ConstantVolume, DOAS SUPPLY FAN, Design Size Maximum Flow Rate [m3/s], 1.96149
Water Heater Information,WaterHeater:Mixed,100GAL NATURAL GAS WATER HEATER - 100KBTU/HR 0.802 THERM EFF 0.808 THERM EFF,0.3785,29307.1,1.016,0.2254
 Component Sizing Information, PlantLoop, MAIN SERVICE WATER LOOP, Maximum Loop Flow Rate [m3/s], 5.36265E-005
 Component Sizing Information, PlantLoop, MAIN SERVICE WATER LOOP, Plant Loop Volume [m3], 6.43518E-003
 Component Sizing Information, Pump:ConstantSpeed, SERVICE WATER LOOP PUMP, Design Flow Rate [m3/s], 5.36265E-005
 Component Sizing Information, Pump:ConstantSpeed, SERVICE WATER LOOP PUMP, Design Power Consumption [W], 16.14994
 Component Sizing Information, WaterHeater:Mixed, 100GAL NATURAL GAS WATER HEATER - 100KBTU/HR 0.802 THERM EFF 0.808 THERM EFF, Use Side Design Flow Rate [m3/s], 5.36265E-005
! <Environment>,Environment Name,Environment Type, Start Date, End Date, Start DayOfWeek, Duration {#days}, Source:Start DayOfWeek,  Use Daylight Saving, Use Holidays, Apply Weekend Holiday Rule,  Use Rain Values, Use Snow Values
! <Environment:Special Days>, Special Day Name, Special Day Type, Source, Start Date, Duration {#days}
! <Environment:Daylight Saving>, Daylight Saving Indicator, Source, Start Date, End Date
! <Environment:WarmupDays>, NumberofWarmupDays
Environment,RUN PERIOD 1,WeatherFileRunPeriod,01/01/2006,12/31/2006,Sunday,365,Use RunPeriod Specified Day,No,No,No,Yes,Yes
Environment:Daylight Saving,No,RunPeriod Object
Environment:WarmupDays, 15
! <Tabular Report>,Style,Unit Conversion
Tabular Report,HTML,None
! <Warmup Convergence Information>,Zone Name,Environment Type/Name,Average Warmup Temperature Difference {deltaC},Std Dev Warmup Temperature Difference {deltaC},Max Temperature Pass/Fail Convergence,Min Temperature Pass/Fail Convergence,Average Warmup Load Difference {W},Std Dev Warmup Load Difference {W},Heating Load Pass/Fail Convergence,Cooling Load Pass/Fail Convergence
 Warmup Convergence Information,TZ_CORE_BOTTOM,RunPeriod: RUN PERIOD 1,3.6040451823E-003,5.8822672937E-003,Pass,Pass,0.0000000000,0.0000000000,Pass,Pass
 Warmup Convergence Information,TZ_CORE_GROUND,RunPeriod: RUN PERIOD 1,5.8948242520E-002,0.1539056848,Pass,Pass,5.5540024553E-002,0.2107931883,Pass,Pass
 Warmup Convergence Information,TZ_CORE_MID,RunPeriod: RUN PERIOD 1,3.6666146854E-003,6.0729421412E-003,Pass,Pass,0.0000000000,0.0000000000,Pass,Pass
 Warmup Convergence Information,TZ_CORE_TOP,RunPeriod: RUN PERIOD 1,1.4565158770E-008,4.5925494173E-008,Pass,Pass,9.9685375372E-003,2.5941212073E-002,Pass,Pass
 Warmup Convergence Information,TZ_FIRSTFLOOR_PLENUM,RunPeriod: RUN PERIOD 1,1.3264389309E-002,8.8154522928E-003,Pass,Pass,0.0000000000,0.0000000000,Pass,Pass
 Warmup Convergence Information,TZ_GROUNDFLOOR_PLENUM,RunPeriod: RUN PERIOD 1,1.0637503575E-002,6.2322526864E-003,Pass,Pass,0.0000000000,0.0000000000,Pass,Pass
 Warmup Convergence Information,TZ_MIDFLOOR_PLENUM,RunPeriod: RUN PERIOD 1,1.4048396783E-002,9.6777610523E-003,Pass,Pass,0.0000000000,0.0000000000,Pass,Pass
 Warmup Convergence Information,TZ_PERIMETER_BOT_ZN_1,RunPeriod: RUN PERIOD 1,6.1596703762E-002,8.3690721039E-002,Pass,Pass,2.4877112393E-002,0.1252130127,Pass,Pass
 Warmup Convergence Information,TZ_PERIMETER_BOT_ZN_2,RunPeriod: RUN PERIOD 1,2.5015189448E-002,5.3367666794E-002,Pass,Pass,6.2892010552E-002,0.2273186056,Pass,Pass
 Warmup Convergence Information,TZ_PERIMETER_BOT_ZN_3,RunPeriod: RUN PERIOD 1,1.0927702667E-004,7.5155578171E-004,Pass,Pass,8.0609879492E-002,0.1401125478,Pass,Pass
 Warmup Convergence Information,TZ_PERIMETER_BOT_ZN_4,RunPeriod: RUN PERIOD 1,5.7452990981E-003,1.4191915102E-002,Pass,Pass,7.3203413760E-002,0.1828755495,Pass,Pass
 Warmup Convergence Information,TZ_PERIMETER_GROUND_ZN_1,RunPeriod: RUN PERIOD 1,0.1167216423,0.3850457261,Pass,Pass,0.5188469323,4.6261686792,Pass,Pass
 Warmup Convergence Information,TZ_PERIMETER_GROUND_ZN_2,RunPeriod: RUN PERIOD 1,9.6247212891E-002,0.4042753344,Pass,Pass,0.4913184706,2.6290178885,Pass,Pass
 Warmup Convergence Information,TZ_PERIMETER_GROUND_ZN_3,RunPeriod: RUN PERIOD 1,7.5001249906E-002,0.3592660206,Pass,Pass,7.3454984454E-002,0.1644280740,Pass,Pass
 Warmup Convergence Information,TZ_PERIMETER_GROUND_ZN_4,RunPeriod: RUN PERIOD 1,7.9505250028E-002,0.4044419486,Pass,Pass,0.2078945763,0.5664629675,Pass,Pass
 Warmup Convergence Information,TZ_PERIMETER_MID_ZN_1,RunPeriod: RUN PERIOD 1,4.4199358065E-002,7.4910681930E-002,Pass,Pass,5.8474295336E-002,0.1741453942,Pass,Pass
 Warmup Convergence Information,TZ_PERIMETER_MID_ZN_2,RunPeriod: RUN PERIOD 1,1.0314441850E-002,3.2191166945E-002,Pass,Pass,5.8919335848E-002,0.1822574747,Pass,Pass
 Warmup Convergence Information,TZ_PERIMETER_MID_ZN_3,RunPeriod: RUN PERIOD 1,1.6785494885E-007,5.0060771609E-007,Pass,Pass,2.4411943921E-002,2.4903362299E-002,Pass,Pass
 Warmup Convergence Information,TZ_PERIMETER_MID_ZN_4,RunPeriod: RUN PERIOD 1,1.7829451208E-007,5.2422695791E-007,Pass,Pass,3.2720945703E-002,3.3948467443E-002,Pass,Pass
 Warmup Convergence Information,TZ_PERIMETER_TOP_ZN_1,RunPeriod: RUN PERIOD 1,2.8614146352E-002,6.2645463807E-002,Pass,Pass,7.3620730494E-002,0.3474850735,Pass,Pass
 Warmup Convergence Information,TZ_PERIMETER_TOP_ZN_2,RunPeriod: RUN PERIOD 1,1.5281955025E-007,6.2704677030E-007,Pass,Pass,5.7905053231E-002,0.1299655713,Pass,Pass
 Warmup Convergence Information,TZ_PERIMETER_TOP_ZN_3,RunPeriod: RUN PERIOD 1,2.8363693377E-007,8.6270599032E-007,Pass,Pass,1.5586420888E-002,1.4904188699E-002,Pass,Pass
 Warmup Convergence Information,TZ_PERIMETER_TOP_ZN_4,RunPeriod: RUN PERIOD 1,2.9749362094E-007,8.9667412043E-007,Pass,Pass,1.9466020735E-002,1.7685059229E-002,Pass,Pass
 Warmup Convergence Information,TZ_TOPFLOOR_PLENUM,RunPeriod: RUN PERIOD 1,2.5560973711E-002,2.0597059332E-002,Pass,Pass,0.0000000000,0.0000000000,Pass,Pass
! <Program Control Information:Threads/Parallel Sims>, Threading Supported,Maximum Number of Threads, Env Set Threads (OMP_NUM_THREADS), EP Env Set Threads (EP_OMP_NUM_THREADS), IDF Set Threads, Number of Threads Used (Interior Radiant Exchange), Number Nominal Surfaces, Number Parallel Sims
Program Control:Threads/Parallel Sims, No,1, N/A, N/A, N/A, N/A, N/A, N/A
End of Data
