Program Version,EnergyPlus, Version 9.1.0-08d2e308bb, YMD=2019.04.09 23:04
! This file shows details about the branches, nodes, and other
! elements of the flow connections.
! This file is intended for use in "debugging" potential problems
! that may also be detected by the program, but may be more easily
! identified by "eye".
! This file is also intended to support software which draws a
! schematic diagram of the HVAC system.
! ===============================================================
! #Nodes,<Number of Unique Nodes>
 #Nodes,233
! <Node>,<NodeNumber>,<Node Name>,<Node Fluid Type>,<# Times Node Referenced After Definition>
 Node,1,TZ_CORE_BOTTOM AIR TERMINAL OUTLET AIR NODE,Air,3
 Node,2,TZ_CORE_BOTTOM VRF TERMINAL UNIT OUTLET AIR NODE,Air,3
 Node,3,TZ_CORE_BOTTOM VRF TERMINAL UNIT INLET AIR NODE,Air,3
 Node,4,TZ_CORE_BOTTOM RETURN AIR NODE,Air,2
 Node,5,TZ_CORE_GROUND AIR TERMINAL OUTLET AIR NODE,Air,3
 Node,6,TZ_CORE_GROUND VRF TERMINAL UNIT OUTLET AIR NODE,Air,3
 Node,7,TZ_CORE_GROUND VRF TERMINAL UNIT INLET AIR NODE,Air,3
 Node,8,TZ_CORE_GROUND RETURN AIR NODE,Air,2
 Node,9,TZ_CORE_MID AIR TERMINAL OUTLET AIR NODE,Air,3
 Node,10,TZ_CORE_MID VRF TERMINAL UNIT OUTLET AIR NODE,Air,3
 Node,11,TZ_CORE_MID VRF TERMINAL UNIT INLET AIR NODE,Air,3
 Node,12,TZ_CORE_MID RETURN AIR NODE,Air,2
 Node,13,TZ_CORE_TOP AIR TERMINAL OUTLET AIR NODE,Air,3
 Node,14,TZ_CORE_TOP VRF TERMINAL UNIT OUTLET AIR NODE,Air,3
 Node,15,TZ_CORE_TOP VRF TERMINAL UNIT INLET AIR NODE,Air,3
 Node,16,TZ_CORE_TOP RETURN AIR NODE,Air,2
 Node,17,TZ_PERIMETER_BOT_ZN_1 AIR TERMINAL OUTLET AIR NODE,Air,3
 Node,18,TZ_PERIMETER_BOT_ZN_1 VRF TERMINAL UNIT OUTLET AIR NODE,Air,3
 Node,19,TZ_PERIMETER_BOT_ZN_1 VRF TERMINAL UNIT INLET AIR NODE,Air,3
 Node,20,TZ_PERIMETER_BOT_ZN_1 RETURN AIR NODE,Air,2
 Node,21,TZ_PERIMETER_BOT_ZN_2 AIR TERMINAL OUTLET AIR NODE,Air,3
 Node,22,TZ_PERIMETER_BOT_ZN_2 VRF TERMINAL UNIT OUTLET AIR NODE,Air,3
 Node,23,TZ_PERIMETER_BOT_ZN_2 VRF TERMINAL UNIT INLET AIR NODE,Air,3
 Node,24,TZ_PERIMETER_BOT_ZN_2 RETURN AIR NODE,Air,2
 Node,25,TZ_PERIMETER_BOT_ZN_3 AIR TERMINAL OUTLET AIR NODE,Air,3
 Node,26,TZ_PERIMETER_BOT_ZN_3 VRF TERMINAL UNIT OUTLET AIR NODE,Air,3
 Node,27,TZ_PERIMETER_BOT_ZN_3 VRF TERMINAL UNIT INLET AIR NODE,Air,3
 Node,28,TZ_PERIMETER_BOT_ZN_3 RETURN AIR NODE,Air,2
 Node,29,TZ_PERIMETER_BOT_ZN_4 AIR TERMINAL OUTLET AIR NODE,Air,3
 Node,30,TZ_PERIMETER_BOT_ZN_4 VRF TERMINAL UNIT OUTLET AIR NODE,Air,3
 Node,31,TZ_PERIMETER_BOT_ZN_4 VRF TERMINAL UNIT INLET AIR NODE,Air,3
 Node,32,TZ_PERIMETER_BOT_ZN_4 RETURN AIR NODE,Air,2
 Node,33,TZ_PERIMETER_GROUND_ZN_1 AIR TERMINAL OUTLET AIR NODE,Air,3
 Node,34,TZ_PERIMETER_GROUND_ZN_1 VRF TERMINAL UNIT OUTLET AIR NODE,Air,3
 Node,35,TZ_PERIMETER_GROUND_ZN_1 VRF TERMINAL UNIT INLET AIR NODE,Air,3
 Node,36,TZ_PERIMETER_GROUND_ZN_1 RETURN AIR NODE,Air,2
 Node,37,TZ_PERIMETER_GROUND_ZN_2 AIR TERMINAL OUTLET AIR NODE,Air,3
 Node,38,TZ_PERIMETER_GROUND_ZN_2 VRF TERMINAL UNIT OUTLET AIR NODE,Air,3
 Node,39,TZ_PERIMETER_GROUND_ZN_2 VRF TERMINAL UNIT INLET AIR NODE,Air,3
 Node,40,TZ_PERIMETER_GROUND_ZN_2 RETURN AIR NODE,Air,2
 Node,41,TZ_PERIMETER_GROUND_ZN_3 AIR TERMINAL OUTLET AIR NODE,Air,3
 Node,42,TZ_PERIMETER_GROUND_ZN_3 VRF TERMINAL UNIT OUTLET AIR NODE,Air,3
 Node,43,TZ_PERIMETER_GROUND_ZN_3 VRF TERMINAL UNIT INLET AIR NODE,Air,3
 Node,44,TZ_PERIMETER_GROUND_ZN_3 RETURN AIR NODE,Air,2
 Node,45,TZ_PERIMETER_GROUND_ZN_4 AIR TERMINAL OUTLET AIR NODE,Air,3
 Node,46,TZ_PERIMETER_GROUND_ZN_4 VRF TERMINAL UNIT OUTLET AIR NODE,Air,3
 Node,47,TZ_PERIMETER_GROUND_ZN_4 VRF TERMINAL UNIT INLET AIR NODE,Air,3
 Node,48,TZ_PERIMETER_GROUND_ZN_4 RETURN AIR NODE,Air,2
 Node,49,TZ_PERIMETER_MID_ZN_1 AIR TERMINAL OUTLET AIR NODE,Air,3
 Node,50,TZ_PERIMETER_MID_ZN_1 VRF TERMINAL UNIT OUTLET AIR NODE,Air,3
 Node,51,TZ_PERIMETER_MID_ZN_1 VRF TERMINAL UNIT INLET AIR NODE,Air,3
 Node,52,TZ_PERIMETER_MID_ZN_1 RETURN AIR NODE,Air,2
 Node,53,TZ_PERIMETER_MID_ZN_2 AIR TERMINAL OUTLET AIR NODE,Air,3
 Node,54,TZ_PERIMETER_MID_ZN_2 VRF TERMINAL UNIT OUTLET AIR NODE,Air,3
 Node,55,TZ_PERIMETER_MID_ZN_2 VRF TERMINAL UNIT INLET AIR NODE,Air,3
 Node,56,TZ_PERIMETER_MID_ZN_2 RETURN AIR NODE,Air,2
 Node,57,TZ_PERIMETER_MID_ZN_3 AIR TERMINAL OUTLET AIR NODE,Air,3
 Node,58,TZ_PERIMETER_MID_ZN_3 VRF TERMINAL UNIT OUTLET AIR NODE,Air,3
 Node,59,TZ_PERIMETER_MID_ZN_3 VRF TERMINAL UNIT INLET AIR NODE,Air,3
 Node,60,TZ_PERIMETER_MID_ZN_3 RETURN AIR NODE,Air,2
 Node,61,TZ_PERIMETER_MID_ZN_4 AIR TERMINAL OUTLET AIR NODE,Air,3
 Node,62,TZ_PERIMETER_MID_ZN_4 VRF TERMINAL UNIT OUTLET AIR NODE,Air,3
 Node,63,TZ_PERIMETER_MID_ZN_4 VRF TERMINAL UNIT INLET AIR NODE,Air,3
 Node,64,TZ_PERIMETER_MID_ZN_4 RETURN AIR NODE,Air,2
 Node,65,TZ_PERIMETER_TOP_ZN_1 AIR TERMINAL OUTLET AIR NODE,Air,3
 Node,66,TZ_PERIMETER_TOP_ZN_1 VRF TERMINAL UNIT OUTLET AIR NODE,Air,3
 Node,67,TZ_PERIMETER_TOP_ZN_1 VRF TERMINAL UNIT INLET AIR NODE,Air,3
 Node,68,TZ_PERIMETER_TOP_ZN_1 RETURN AIR NODE,Air,2
 Node,69,TZ_PERIMETER_TOP_ZN_2 AIR TERMINAL OUTLET AIR NODE,Air,3
 Node,70,TZ_PERIMETER_TOP_ZN_2 VRF TERMINAL UNIT OUTLET AIR NODE,Air,3
 Node,71,TZ_PERIMETER_TOP_ZN_2 VRF TERMINAL UNIT INLET AIR NODE,Air,3
 Node,72,TZ_PERIMETER_TOP_ZN_2 RETURN AIR NODE,Air,2
 Node,73,TZ_PERIMETER_TOP_ZN_3 AIR TERMINAL OUTLET AIR NODE,Air,3
 Node,74,TZ_PERIMETER_TOP_ZN_3 VRF TERMINAL UNIT OUTLET AIR NODE,Air,3
 Node,75,TZ_PERIMETER_TOP_ZN_3 VRF TERMINAL UNIT INLET AIR NODE,Air,3
 Node,76,TZ_PERIMETER_TOP_ZN_3 RETURN AIR NODE,Air,2
 Node,77,TZ_PERIMETER_TOP_ZN_4 AIR TERMINAL OUTLET AIR NODE,Air,3
 Node,78,TZ_PERIMETER_TOP_ZN_4 VRF TERMINAL UNIT OUTLET AIR NODE,Air,3
 Node,79,TZ_PERIMETER_TOP_ZN_4 VRF TERMINAL UNIT INLET AIR NODE,Air,3
 Node,80,TZ_PERIMETER_TOP_ZN_4 RETURN AIR NODE,Air,2
 Node,81,15 ZONE DOAS SUPPLY OUTLET NODE,Air,16
 Node,82,15 ZONE DOAS DEMAND INLET NODE,Air,3
 Node,83,5 ZONE DOAS SUPPLY OUTLET NODE,Air,16
 Node,84,5 ZONE DOAS DEMAND INLET NODE,Air,3
 Node,85,15 ZONE DOAS SUPPLY INLET NODE,Air,2
 Node,86,DOAS EXHAUST FAN 1 OUTLET AIR NODE,Air,5
 Node,87,15 ZONE DOAS MIXED AIR NODE,Air,6
 Node,88,15 ZONE DOAS 2SPD DX CLG COIL OUTLET AIR NODE,Air,6
 Node,89,15 ZONE DOAS HTG COIL OUTLET AIR NODE,Air,4
 Node,90,15 ZONE DOAS BACKUP HTG COIL OUTLET AIR NODE,Air,11
 Node,91,5 ZONE DOAS SUPPLY INLET NODE,Air,2
 Node,92,DOAS EXHAUST FAN OUTLET AIR NODE,Air,5
 Node,93,5 ZONE DOAS MIXED AIR NODE,Air,6
 Node,94,5 ZONE DOAS 2SPD DX CLG COIL OUTLET AIR NODE,Air,6
 Node,95,5 ZONE DOAS HTG COIL OUTLET AIR NODE,Air,4
 Node,96,5 ZONE DOAS BACKUP HTG COIL OUTLET AIR NODE,Air,11
 Node,97,MAIN SERVICE WATER LOOP SUPPLY INLET NODE,Water,2
 Node,98,SERVICE WATER LOOP PUMP OUTLET WATER NODE,Water,1
 Node,99,100GAL NATURAL GAS WATER HEATER - 100KBTU/HR 0.802 THERM EFF SUPPLY INLET WATER NODE,Water,1
 Node,100,100GAL NATURAL GAS WATER HEATER - 100KBTU/HR 0.802 THERM EFF SUPPLY OUTLET WATER NODE,Water,1
 Node,101,PIPE ADIABATIC 1 INLET WATER NODE,Water,1
 Node,102,PIPE ADIABATIC 1 OUTLET WATER NODE,Water,1
 Node,103,PIPE ADIABATIC 3 INLET WATER NODE,Water,1
 Node,104,MAIN SERVICE WATER LOOP SUPPLY OUTLET NODE,Water,4
 Node,105,MAIN SERVICE WATER LOOP DEMAND INLET NODE,Water,2
 Node,106,PIPE ADIABATIC 4 OUTLET WATER NODE,Water,1
 Node,107,PIPE ADIABATIC 2 INLET WATER NODE,Water,1
 Node,108,PIPE ADIABATIC 2 OUTLET WATER NODE,Water,1
 Node,109,WATER USE CONNECTIONS 1 INLET WATER NODE,Water,1
 Node,110,WATER USE CONNECTIONS 1 OUTLET WATER NODE,Water,1
 Node,111,WATER USE CONNECTIONS 2 INLET WATER NODE,Water,1
 Node,112,WATER USE CONNECTIONS 2 OUTLET WATER NODE,Water,1
 Node,113,WATER USE CONNECTIONS 3 INLET WATER NODE,Water,1
 Node,114,WATER USE CONNECTIONS 3 OUTLET WATER NODE,Water,1
 Node,115,WATER USE CONNECTIONS 4 INLET WATER NODE,Water,1
 Node,116,WATER USE CONNECTIONS 4 OUTLET WATER NODE,Water,1
 Node,117,WATER USE CONNECTIONS 5 INLET WATER NODE,Water,1
 Node,118,WATER USE CONNECTIONS 5 OUTLET WATER NODE,Water,1
 Node,119,WATER USE CONNECTIONS 6 INLET WATER NODE,Water,1
 Node,120,WATER USE CONNECTIONS 6 OUTLET WATER NODE,Water,1
 Node,121,WATER USE CONNECTIONS 7 INLET WATER NODE,Water,1
 Node,122,WATER USE CONNECTIONS 7 OUTLET WATER NODE,Water,1
 Node,123,WATER USE CONNECTIONS 8 INLET WATER NODE,Water,1
 Node,124,WATER USE CONNECTIONS 8 OUTLET WATER NODE,Water,1
 Node,125,WATER USE CONNECTIONS 9 INLET WATER NODE,Water,1
 Node,126,WATER USE CONNECTIONS 9 OUTLET WATER NODE,Water,1
 Node,127,WATER USE CONNECTIONS 10 INLET WATER NODE,Water,1
 Node,128,WATER USE CONNECTIONS 10 OUTLET WATER NODE,Water,1
 Node,129,WATER USE CONNECTIONS 11 INLET WATER NODE,Water,1
 Node,130,WATER USE CONNECTIONS 11 OUTLET WATER NODE,Water,1
 Node,131,WATER USE CONNECTIONS 12 INLET WATER NODE,Water,1
 Node,132,WATER USE CONNECTIONS 12 OUTLET WATER NODE,Water,1
 Node,133,WATER USE CONNECTIONS 13 INLET WATER NODE,Water,1
 Node,134,WATER USE CONNECTIONS 13 OUTLET WATER NODE,Water,1
 Node,135,WATER USE CONNECTIONS 14 INLET WATER NODE,Water,1
 Node,136,WATER USE CONNECTIONS 14 OUTLET WATER NODE,Water,1
 Node,137,WATER USE CONNECTIONS 15 INLET WATER NODE,Water,1
 Node,138,WATER USE CONNECTIONS 15 OUTLET WATER NODE,Water,1
 Node,139,MAIN SERVICE WATER LOOP DEMAND BYPASS PIPE INLET NODE,Water,1
 Node,140,MAIN SERVICE WATER LOOP DEMAND BYPASS PIPE OUTLET NODE,Water,1
 Node,141,PIPE ADIABATIC 5 INLET WATER NODE,Water,1
 Node,142,MAIN SERVICE WATER LOOP DEMAND OUTLET NODE,Water,2
 Node,143,TZ_CORE_BOTTOM ZONE AIR NODE,Air,0
 Node,144,TZ_CORE_GROUND ZONE AIR NODE,Air,0
 Node,145,TZ_CORE_MID ZONE AIR NODE,Air,0
 Node,146,TZ_CORE_TOP ZONE AIR NODE,Air,0
 Node,147,TZ_PERIMETER_BOT_ZN_1 ZONE AIR NODE,Air,0
 Node,148,TZ_PERIMETER_BOT_ZN_2 ZONE AIR NODE,Air,0
 Node,149,TZ_PERIMETER_BOT_ZN_3 ZONE AIR NODE,Air,0
 Node,150,TZ_PERIMETER_BOT_ZN_4 ZONE AIR NODE,Air,0
 Node,151,TZ_PERIMETER_GROUND_ZN_1 ZONE AIR NODE,Air,0
 Node,152,TZ_PERIMETER_GROUND_ZN_2 ZONE AIR NODE,Air,0
 Node,153,TZ_PERIMETER_GROUND_ZN_3 ZONE AIR NODE,Air,0
 Node,154,TZ_PERIMETER_GROUND_ZN_4 ZONE AIR NODE,Air,0
 Node,155,TZ_PERIMETER_MID_ZN_1 ZONE AIR NODE,Air,0
 Node,156,TZ_PERIMETER_MID_ZN_2 ZONE AIR NODE,Air,0
 Node,157,TZ_PERIMETER_MID_ZN_3 ZONE AIR NODE,Air,0
 Node,158,TZ_PERIMETER_MID_ZN_4 ZONE AIR NODE,Air,0
 Node,159,TZ_PERIMETER_TOP_ZN_1 ZONE AIR NODE,Air,0
 Node,160,TZ_PERIMETER_TOP_ZN_2 ZONE AIR NODE,Air,0
 Node,161,TZ_PERIMETER_TOP_ZN_3 ZONE AIR NODE,Air,0
 Node,162,TZ_PERIMETER_TOP_ZN_4 ZONE AIR NODE,Air,0
 Node,163,15 ZONE DOAS DEMAND OUTLET NODE,Air,2
 Node,164,5 ZONE DOAS DEMAND OUTLET NODE,Air,2
 Node,165,15 ZONE DOAS OUTDOOR AIR NODE,Air,2
 Node,166,5 ZONE DOAS OUTDOOR AIR NODE,Air,2
 Node,167,MODEL OUTDOOR AIR NODE,Air,0
 Node,168,15 ZONE DOAS HEAT EXCHANGER PRIMARY OUTLET AIR NODE,Air,2
 Node,169,5 ZONE DOAS HEAT EXCHANGER PRIMARY OUTLET AIR NODE,Air,2
 Node,170,TZ_CORE_BOTTOM AIR TERMINAL INLET AIR NODE,Air,1
 Node,171,TZ_CORE_MID AIR TERMINAL INLET AIR NODE,Air,1
 Node,172,TZ_CORE_TOP AIR TERMINAL INLET AIR NODE,Air,1
 Node,173,TZ_PERIMETER_BOT_ZN_1 AIR TERMINAL INLET AIR NODE,Air,1
 Node,174,TZ_PERIMETER_BOT_ZN_2 AIR TERMINAL INLET AIR NODE,Air,1
 Node,175,TZ_PERIMETER_BOT_ZN_3 AIR TERMINAL INLET AIR NODE,Air,1
 Node,176,TZ_PERIMETER_BOT_ZN_4 AIR TERMINAL INLET AIR NODE,Air,1
 Node,177,TZ_PERIMETER_MID_ZN_1 AIR TERMINAL INLET AIR NODE,Air,1
 Node,178,TZ_PERIMETER_MID_ZN_2 AIR TERMINAL INLET AIR NODE,Air,1
 Node,179,TZ_PERIMETER_MID_ZN_3 AIR TERMINAL INLET AIR NODE,Air,1
 Node,180,TZ_PERIMETER_MID_ZN_4 AIR TERMINAL INLET AIR NODE,Air,1
 Node,181,TZ_PERIMETER_TOP_ZN_1 AIR TERMINAL INLET AIR NODE,Air,1
 Node,182,TZ_PERIMETER_TOP_ZN_2 AIR TERMINAL INLET AIR NODE,Air,1
 Node,183,TZ_PERIMETER_TOP_ZN_3 AIR TERMINAL INLET AIR NODE,Air,1
 Node,184,TZ_PERIMETER_TOP_ZN_4 AIR TERMINAL INLET AIR NODE,Air,1
 Node,185,TZ_CORE_GROUND AIR TERMINAL INLET AIR NODE,Air,1
 Node,186,TZ_PERIMETER_GROUND_ZN_1 AIR TERMINAL INLET AIR NODE,Air,1
 Node,187,TZ_PERIMETER_GROUND_ZN_2 AIR TERMINAL INLET AIR NODE,Air,1
 Node,188,TZ_PERIMETER_GROUND_ZN_3 AIR TERMINAL INLET AIR NODE,Air,1
 Node,189,TZ_PERIMETER_GROUND_ZN_4 AIR TERMINAL INLET AIR NODE,Air,1
 Node,190,TZ_CORE_BOTTOM VRF TERMINAL UNIT HEATING COIL OUTLET NODE,Air,1
 Node,191,TZ_CORE_GROUND VRF TERMINAL UNIT HEATING COIL OUTLET NODE,Air,1
 Node,192,TZ_CORE_MID VRF TERMINAL UNIT HEATING COIL OUTLET NODE,Air,1
 Node,193,TZ_CORE_TOP VRF TERMINAL UNIT HEATING COIL OUTLET NODE,Air,1
 Node,194,TZ_PERIMETER_BOT_ZN_1 VRF TERMINAL UNIT HEATING COIL OUTLET NODE,Air,1
 Node,195,TZ_PERIMETER_BOT_ZN_2 VRF TERMINAL UNIT HEATING COIL OUTLET NODE,Air,1
 Node,196,TZ_PERIMETER_BOT_ZN_3 VRF TERMINAL UNIT HEATING COIL OUTLET NODE,Air,1
 Node,197,TZ_PERIMETER_BOT_ZN_4 VRF TERMINAL UNIT HEATING COIL OUTLET NODE,Air,1
 Node,198,TZ_PERIMETER_GROUND_ZN_1 VRF TERMINAL UNIT HEATING COIL OUTLET NODE,Air,1
 Node,199,TZ_PERIMETER_GROUND_ZN_2 VRF TERMINAL UNIT HEATING COIL OUTLET NODE,Air,1
 Node,200,TZ_PERIMETER_GROUND_ZN_3 VRF TERMINAL UNIT HEATING COIL OUTLET NODE,Air,1
 Node,201,TZ_PERIMETER_GROUND_ZN_4 VRF TERMINAL UNIT HEATING COIL OUTLET NODE,Air,1
 Node,202,TZ_PERIMETER_MID_ZN_1 VRF TERMINAL UNIT HEATING COIL OUTLET NODE,Air,1
 Node,203,TZ_PERIMETER_MID_ZN_2 VRF TERMINAL UNIT HEATING COIL OUTLET NODE,Air,1
 Node,204,TZ_PERIMETER_MID_ZN_3 VRF TERMINAL UNIT HEATING COIL OUTLET NODE,Air,1
 Node,205,TZ_PERIMETER_MID_ZN_4 VRF TERMINAL UNIT HEATING COIL OUTLET NODE,Air,1
 Node,206,TZ_PERIMETER_TOP_ZN_1 VRF TERMINAL UNIT HEATING COIL OUTLET NODE,Air,1
 Node,207,TZ_PERIMETER_TOP_ZN_2 VRF TERMINAL UNIT HEATING COIL OUTLET NODE,Air,1
 Node,208,TZ_PERIMETER_TOP_ZN_3 VRF TERMINAL UNIT HEATING COIL OUTLET NODE,Air,1
 Node,209,TZ_PERIMETER_TOP_ZN_4 VRF TERMINAL UNIT HEATING COIL OUTLET NODE,Air,1
 Node,210,TZ_CORE_BOTTOM VRF TERMINAL UNIT COOLING COIL OUTLET NODE,Air,1
 Node,211,TZ_CORE_GROUND VRF TERMINAL UNIT COOLING COIL OUTLET NODE,Air,1
 Node,212,TZ_CORE_MID VRF TERMINAL UNIT COOLING COIL OUTLET NODE,Air,1
 Node,213,TZ_CORE_TOP VRF TERMINAL UNIT COOLING COIL OUTLET NODE,Air,1
 Node,214,TZ_PERIMETER_BOT_ZN_1 VRF TERMINAL UNIT COOLING COIL OUTLET NODE,Air,1
 Node,215,TZ_PERIMETER_BOT_ZN_2 VRF TERMINAL UNIT COOLING COIL OUTLET NODE,Air,1
 Node,216,TZ_PERIMETER_BOT_ZN_3 VRF TERMINAL UNIT COOLING COIL OUTLET NODE,Air,1
 Node,217,TZ_PERIMETER_BOT_ZN_4 VRF TERMINAL UNIT COOLING COIL OUTLET NODE,Air,1
 Node,218,TZ_PERIMETER_GROUND_ZN_1 VRF TERMINAL UNIT COOLING COIL OUTLET NODE,Air,1
 Node,219,TZ_PERIMETER_GROUND_ZN_2 VRF TERMINAL UNIT COOLING COIL OUTLET NODE,Air,1
 Node,220,TZ_PERIMETER_GROUND_ZN_3 VRF TERMINAL UNIT COOLING COIL OUTLET NODE,Air,1
 Node,221,TZ_PERIMETER_GROUND_ZN_4 VRF TERMINAL UNIT COOLING COIL OUTLET NODE,Air,1
 Node,222,TZ_PERIMETER_MID_ZN_1 VRF TERMINAL UNIT COOLING COIL OUTLET NODE,Air,1
 Node,223,TZ_PERIMETER_MID_ZN_2 VRF TERMINAL UNIT COOLING COIL OUTLET NODE,Air,1
 Node,224,TZ_PERIMETER_MID_ZN_3 VRF TERMINAL UNIT COOLING COIL OUTLET NODE,Air,1
 Node,225,TZ_PERIMETER_MID_ZN_4 VRF TERMINAL UNIT COOLING COIL OUTLET NODE,Air,1
 Node,226,TZ_PERIMETER_TOP_ZN_1 VRF TERMINAL UNIT COOLING COIL OUTLET NODE,Air,1
 Node,227,TZ_PERIMETER_TOP_ZN_2 VRF TERMINAL UNIT COOLING COIL OUTLET NODE,Air,1
 Node,228,TZ_PERIMETER_TOP_ZN_3 VRF TERMINAL UNIT COOLING COIL OUTLET NODE,Air,1
 Node,229,TZ_PERIMETER_TOP_ZN_4 VRF TERMINAL UNIT COOLING COIL OUTLET NODE,Air,1
 Node,230,15 ZONE DOAS HEAT EXCHANGER SECONDARY INLET AIR NODE,Air,2
 Node,231,5 ZONE DOAS HEAT EXCHANGER SECONDARY INLET AIR NODE,Air,2
 Node,232,15 ZONE DOAS RELIEF AIR NODE,Air,0
 Node,233,5 ZONE DOAS RELIEF AIR NODE,Air,0
! ===============================================================
! Suspicious nodes have 0 references.  It is normal for some nodes, however.
! Listing nodes with 0 references (culled from previous list):
! <Suspicious Node>,<NodeNumber>,<Node Name>,<Node Fluid Type>,<# Times Node Referenced After Definition>
 Suspicious Node,143,TZ_CORE_BOTTOM ZONE AIR NODE,Air,0
 Suspicious Node,144,TZ_CORE_GROUND ZONE AIR NODE,Air,0
 Suspicious Node,145,TZ_CORE_MID ZONE AIR NODE,Air,0
 Suspicious Node,146,TZ_CORE_TOP ZONE AIR NODE,Air,0
 Suspicious Node,147,TZ_PERIMETER_BOT_ZN_1 ZONE AIR NODE,Air,0
 Suspicious Node,148,TZ_PERIMETER_BOT_ZN_2 ZONE AIR NODE,Air,0
 Suspicious Node,149,TZ_PERIMETER_BOT_ZN_3 ZONE AIR NODE,Air,0
 Suspicious Node,150,TZ_PERIMETER_BOT_ZN_4 ZONE AIR NODE,Air,0
 Suspicious Node,151,TZ_PERIMETER_GROUND_ZN_1 ZONE AIR NODE,Air,0
 Suspicious Node,152,TZ_PERIMETER_GROUND_ZN_2 ZONE AIR NODE,Air,0
 Suspicious Node,153,TZ_PERIMETER_GROUND_ZN_3 ZONE AIR NODE,Air,0
 Suspicious Node,154,TZ_PERIMETER_GROUND_ZN_4 ZONE AIR NODE,Air,0
 Suspicious Node,155,TZ_PERIMETER_MID_ZN_1 ZONE AIR NODE,Air,0
 Suspicious Node,156,TZ_PERIMETER_MID_ZN_2 ZONE AIR NODE,Air,0
 Suspicious Node,157,TZ_PERIMETER_MID_ZN_3 ZONE AIR NODE,Air,0
 Suspicious Node,158,TZ_PERIMETER_MID_ZN_4 ZONE AIR NODE,Air,0
 Suspicious Node,159,TZ_PERIMETER_TOP_ZN_1 ZONE AIR NODE,Air,0
 Suspicious Node,160,TZ_PERIMETER_TOP_ZN_2 ZONE AIR NODE,Air,0
 Suspicious Node,161,TZ_PERIMETER_TOP_ZN_3 ZONE AIR NODE,Air,0
 Suspicious Node,162,TZ_PERIMETER_TOP_ZN_4 ZONE AIR NODE,Air,0
 Suspicious Node,167,MODEL OUTDOOR AIR NODE,Air,0
 Suspicious Node,232,15 ZONE DOAS RELIEF AIR NODE,Air,0
 Suspicious Node,233,5 ZONE DOAS RELIEF AIR NODE,Air,0
! ===============================================================
! <#Branch Lists>,<Number of Branch Lists>
 #Branch Lists,4
! <Branch List>,<Branch List Count>,<Branch List Name>,<Loop Name>,<Loop Type>,<Number of Branches>
! <Branch>,<Branch Count>,<Branch Name>,<Loop Name>,<Loop Type>,<Branch Inlet Node Name>,<Branch Outlet Node Name>
 Branch List,1,15 ZONE DOAS SUPPLY BRANCHES,15 ZONE DOAS,Air,1
   Branch,1,15 ZONE DOAS MAIN BRANCH,15 ZONE DOAS,Air,15 ZONE DOAS SUPPLY INLET NODE,15 ZONE DOAS SUPPLY OUTLET NODE
 Branch List,2,5 ZONE DOAS SUPPLY BRANCHES,5 ZONE DOAS,Air,1
   Branch,1,5 ZONE DOAS MAIN BRANCH,5 ZONE DOAS,Air,5 ZONE DOAS SUPPLY INLET NODE,5 ZONE DOAS SUPPLY OUTLET NODE
 Branch List,3,MAIN SERVICE WATER LOOP SUPPLY BRANCHES,MAIN SERVICE WATER LOOP,Plant Supply,4
   Branch,1,MAIN SERVICE WATER LOOP SUPPLY INLET BRANCH,MAIN SERVICE WATER LOOP,Plant Supply,MAIN SERVICE WATER LOOP SUPPLY INLET NODE,SERVICE WATER LOOP PUMP OUTLET WATER NODE
   Branch,2,MAIN SERVICE WATER LOOP SUPPLY BRANCH 1,MAIN SERVICE WATER LOOP,Plant Supply,100GAL NATURAL GAS WATER HEATER - 100KBTU/HR 0.802 THERM EFF SUPPLY INLET WATER NODE,100GAL NATURAL GAS WATER HEATER - 100KBTU/HR 0.802 THERM EFF SUPPLY OUTLET WATER NODE
   Branch,3,MAIN SERVICE WATER LOOP SUPPLY BRANCH 2,MAIN SERVICE WATER LOOP,Plant Supply,PIPE ADIABATIC 1 INLET WATER NODE,PIPE ADIABATIC 1 OUTLET WATER NODE
   Branch,4,MAIN SERVICE WATER LOOP SUPPLY OUTLET BRANCH,MAIN SERVICE WATER LOOP,Plant Supply,PIPE ADIABATIC 3 INLET WATER NODE,MAIN SERVICE WATER LOOP SUPPLY OUTLET NODE
 Branch List,4,MAIN SERVICE WATER LOOP DEMAND BRANCHES,MAIN SERVICE WATER LOOP,Plant Demand,19
   Branch,1,MAIN SERVICE WATER LOOP DEMAND INLET BRANCH,MAIN SERVICE WATER LOOP,Plant Demand,MAIN SERVICE WATER LOOP DEMAND INLET NODE,PIPE ADIABATIC 4 OUTLET WATER NODE
   Branch,2,MAIN SERVICE WATER LOOP DEMAND BRANCH 1,MAIN SERVICE WATER LOOP,Plant Demand,PIPE ADIABATIC 2 INLET WATER NODE,PIPE ADIABATIC 2 OUTLET WATER NODE
   Branch,3,MAIN SERVICE WATER LOOP DEMAND BRANCH 2,MAIN SERVICE WATER LOOP,Plant Demand,WATER USE CONNECTIONS 1 INLET WATER NODE,WATER USE CONNECTIONS 1 OUTLET WATER NODE
   Branch,4,MAIN SERVICE WATER LOOP DEMAND BRANCH 3,MAIN SERVICE WATER LOOP,Plant Demand,WATER USE CONNECTIONS 2 INLET WATER NODE,WATER USE CONNECTIONS 2 OUTLET WATER NODE
   Branch,5,MAIN SERVICE WATER LOOP DEMAND BRANCH 4,MAIN SERVICE WATER LOOP,Plant Demand,WATER USE CONNECTIONS 3 INLET WATER NODE,WATER USE CONNECTIONS 3 OUTLET WATER NODE
   Branch,6,MAIN SERVICE WATER LOOP DEMAND BRANCH 5,MAIN SERVICE WATER LOOP,Plant Demand,WATER USE CONNECTIONS 4 INLET WATER NODE,WATER USE CONNECTIONS 4 OUTLET WATER NODE
   Branch,7,MAIN SERVICE WATER LOOP DEMAND BRANCH 6,MAIN SERVICE WATER LOOP,Plant Demand,WATER USE CONNECTIONS 5 INLET WATER NODE,WATER USE CONNECTIONS 5 OUTLET WATER NODE
   Branch,8,MAIN SERVICE WATER LOOP DEMAND BRANCH 7,MAIN SERVICE WATER LOOP,Plant Demand,WATER USE CONNECTIONS 6 INLET WATER NODE,WATER USE CONNECTIONS 6 OUTLET WATER NODE
   Branch,9,MAIN SERVICE WATER LOOP DEMAND BRANCH 8,MAIN SERVICE WATER LOOP,Plant Demand,WATER USE CONNECTIONS 7 INLET WATER NODE,WATER USE CONNECTIONS 7 OUTLET WATER NODE
   Branch,10,MAIN SERVICE WATER LOOP DEMAND BRANCH 9,MAIN SERVICE WATER LOOP,Plant Demand,WATER USE CONNECTIONS 8 INLET WATER NODE,WATER USE CONNECTIONS 8 OUTLET WATER NODE
   Branch,11,MAIN SERVICE WATER LOOP DEMAND BRANCH 10,MAIN SERVICE WATER LOOP,Plant Demand,WATER USE CONNECTIONS 9 INLET WATER NODE,WATER USE CONNECTIONS 9 OUTLET WATER NODE
   Branch,12,MAIN SERVICE WATER LOOP DEMAND BRANCH 11,MAIN SERVICE WATER LOOP,Plant Demand,WATER USE CONNECTIONS 10 INLET WATER NODE,WATER USE CONNECTIONS 10 OUTLET WATER NODE
   Branch,13,MAIN SERVICE WATER LOOP DEMAND BRANCH 12,MAIN SERVICE WATER LOOP,Plant Demand,WATER USE CONNECTIONS 11 INLET WATER NODE,WATER USE CONNECTIONS 11 OUTLET WATER NODE
   Branch,14,MAIN SERVICE WATER LOOP DEMAND BRANCH 13,MAIN SERVICE WATER LOOP,Plant Demand,WATER USE CONNECTIONS 12 INLET WATER NODE,WATER USE CONNECTIONS 12 OUTLET WATER NODE
   Branch,15,MAIN SERVICE WATER LOOP DEMAND BRANCH 14,MAIN SERVICE WATER LOOP,Plant Demand,WATER USE CONNECTIONS 13 INLET WATER NODE,WATER USE CONNECTIONS 13 OUTLET WATER NODE
   Branch,16,MAIN SERVICE WATER LOOP DEMAND BRANCH 15,MAIN SERVICE WATER LOOP,Plant Demand,WATER USE CONNECTIONS 14 INLET WATER NODE,WATER USE CONNECTIONS 14 OUTLET WATER NODE
   Branch,17,MAIN SERVICE WATER LOOP DEMAND BRANCH 16,MAIN SERVICE WATER LOOP,Plant Demand,WATER USE CONNECTIONS 15 INLET WATER NODE,WATER USE CONNECTIONS 15 OUTLET WATER NODE
   Branch,18,MAIN SERVICE WATER LOOP DEMAND BYPASS BRANCH,MAIN SERVICE WATER LOOP,Plant Demand,MAIN SERVICE WATER LOOP DEMAND BYPASS PIPE INLET NODE,MAIN SERVICE WATER LOOP DEMAND BYPASS PIPE OUTLET NODE
   Branch,19,MAIN SERVICE WATER LOOP DEMAND OUTLET BRANCH,MAIN SERVICE WATER LOOP,Plant Demand,PIPE ADIABATIC 5 INLET WATER NODE,MAIN SERVICE WATER LOOP DEMAND OUTLET NODE
! ===============================================================
! <#Supply Air Paths>,<Number of Supply Air Paths>
 #Supply Air Paths,2
! <Supply Air Path>,<Supply Air Path Count>,<Supply Air Path Name>,<AirLoopHVAC Name>
! <#Components on Supply Air Path>,<Number of Components>
! <Supply Air Path Component>,<Component Count>,<Component Type>,<Component Name>,<AirLoopHVAC Name>
! <#Outlet Nodes on Supply Air Path Component>,<Number of Nodes>
! <Supply Air Path Component Nodes>,<Node Count>,<Component Type>,<Component Name>,<Inlet Node Name>,<Outlet Node Name>,<AirLoopHVAC Name>
 Supply Air Path,1,15 ZONE DOAS 15 ZONE DOAS DEMAND INLET NODE SUPPLY PATH,15 ZONE DOAS
   #Components on Supply Air Path,1
   Supply Air Path Component,1,AIRLOOPHVAC:ZONESPLITTER,AIR LOOP HVAC ZONE SPLITTER 2,15 ZONE DOAS
     #Outlet Nodes on Supply Air Path Component,15
     Supply Air Path Component Nodes,1,AIRLOOPHVAC:ZONESPLITTER,AIR LOOP HVAC ZONE SPLITTER 2,15 ZONE DOAS DEMAND INLET NODE,TZ_CORE_BOTTOM AIR TERMINAL INLET AIR NODE,15 ZONE DOAS
     Supply Air Path Component Nodes,2,AIRLOOPHVAC:ZONESPLITTER,AIR LOOP HVAC ZONE SPLITTER 2,15 ZONE DOAS DEMAND INLET NODE,TZ_CORE_MID AIR TERMINAL INLET AIR NODE,15 ZONE DOAS
     Supply Air Path Component Nodes,3,AIRLOOPHVAC:ZONESPLITTER,AIR LOOP HVAC ZONE SPLITTER 2,15 ZONE DOAS DEMAND INLET NODE,TZ_CORE_TOP AIR TERMINAL INLET AIR NODE,15 ZONE DOAS
     Supply Air Path Component Nodes,4,AIRLOOPHVAC:ZONESPLITTER,AIR LOOP HVAC ZONE SPLITTER 2,15 ZONE DOAS DEMAND INLET NODE,TZ_PERIMETER_BOT_ZN_1 AIR TERMINAL INLET AIR NODE,15 ZONE DOAS
     Supply Air Path Component Nodes,5,AIRLOOPHVAC:ZONESPLITTER,AIR LOOP HVAC ZONE SPLITTER 2,15 ZONE DOAS DEMAND INLET NODE,TZ_PERIMETER_BOT_ZN_2 AIR TERMINAL INLET AIR NODE,15 ZONE DOAS
     Supply Air Path Component Nodes,6,AIRLOOPHVAC:ZONESPLITTER,AIR LOOP HVAC ZONE SPLITTER 2,15 ZONE DOAS DEMAND INLET NODE,TZ_PERIMETER_BOT_ZN_3 AIR TERMINAL INLET AIR NODE,15 ZONE DOAS
     Supply Air Path Component Nodes,7,AIRLOOPHVAC:ZONESPLITTER,AIR LOOP HVAC ZONE SPLITTER 2,15 ZONE DOAS DEMAND INLET NODE,TZ_PERIMETER_BOT_ZN_4 AIR TERMINAL INLET AIR NODE,15 ZONE DOAS
     Supply Air Path Component Nodes,8,AIRLOOPHVAC:ZONESPLITTER,AIR LOOP HVAC ZONE SPLITTER 2,15 ZONE DOAS DEMAND INLET NODE,TZ_PERIMETER_MID_ZN_1 AIR TERMINAL INLET AIR NODE,15 ZONE DOAS
     Supply Air Path Component Nodes,9,AIRLOOPHVAC:ZONESPLITTER,AIR LOOP HVAC ZONE SPLITTER 2,15 ZONE DOAS DEMAND INLET NODE,TZ_PERIMETER_MID_ZN_2 AIR TERMINAL INLET AIR NODE,15 ZONE DOAS
     Supply Air Path Component Nodes,10,AIRLOOPHVAC:ZONESPLITTER,AIR LOOP HVAC ZONE SPLITTER 2,15 ZONE DOAS DEMAND INLET NODE,TZ_PERIMETER_MID_ZN_3 AIR TERMINAL INLET AIR NODE,15 ZONE DOAS
     Supply Air Path Component Nodes,11,AIRLOOPHVAC:ZONESPLITTER,AIR LOOP HVAC ZONE SPLITTER 2,15 ZONE DOAS DEMAND INLET NODE,TZ_PERIMETER_MID_ZN_4 AIR TERMINAL INLET AIR NODE,15 ZONE DOAS
     Supply Air Path Component Nodes,12,AIRLOOPHVAC:ZONESPLITTER,AIR LOOP HVAC ZONE SPLITTER 2,15 ZONE DOAS DEMAND INLET NODE,TZ_PERIMETER_TOP_ZN_1 AIR TERMINAL INLET AIR NODE,15 ZONE DOAS
     Supply Air Path Component Nodes,13,AIRLOOPHVAC:ZONESPLITTER,AIR LOOP HVAC ZONE SPLITTER 2,15 ZONE DOAS DEMAND INLET NODE,TZ_PERIMETER_TOP_ZN_2 AIR TERMINAL INLET AIR NODE,15 ZONE DOAS
     Supply Air Path Component Nodes,14,AIRLOOPHVAC:ZONESPLITTER,AIR LOOP HVAC ZONE SPLITTER 2,15 ZONE DOAS DEMAND INLET NODE,TZ_PERIMETER_TOP_ZN_3 AIR TERMINAL INLET AIR NODE,15 ZONE DOAS
     Supply Air Path Component Nodes,15,AIRLOOPHVAC:ZONESPLITTER,AIR LOOP HVAC ZONE SPLITTER 2,15 ZONE DOAS DEMAND INLET NODE,TZ_PERIMETER_TOP_ZN_4 AIR TERMINAL INLET AIR NODE,15 ZONE DOAS
! <#Nodes on Supply Air Path>,<Number of Nodes>
! <Supply Air Path Node>,<Node Type>,<Node Count>,<Node Name>,<AirLoopHVAC Name>
#Nodes on Supply Air Path,16
   Supply Air Path Node,Inlet Node,1,15 ZONE DOAS DEMAND INLET NODE,15 ZONE DOAS
   Supply Air Path Node,Outlet Node,2,TZ_CORE_BOTTOM AIR TERMINAL INLET AIR NODE,15 ZONE DOAS
   Supply Air Path Node,Outlet Node,3,TZ_CORE_MID AIR TERMINAL INLET AIR NODE,15 ZONE DOAS
   Supply Air Path Node,Outlet Node,4,TZ_CORE_TOP AIR TERMINAL INLET AIR NODE,15 ZONE DOAS
   Supply Air Path Node,Outlet Node,5,TZ_PERIMETER_BOT_ZN_1 AIR TERMINAL INLET AIR NODE,15 ZONE DOAS
   Supply Air Path Node,Outlet Node,6,TZ_PERIMETER_BOT_ZN_2 AIR TERMINAL INLET AIR NODE,15 ZONE DOAS
   Supply Air Path Node,Outlet Node,7,TZ_PERIMETER_BOT_ZN_3 AIR TERMINAL INLET AIR NODE,15 ZONE DOAS
   Supply Air Path Node,Outlet Node,8,TZ_PERIMETER_BOT_ZN_4 AIR TERMINAL INLET AIR NODE,15 ZONE DOAS
   Supply Air Path Node,Outlet Node,9,TZ_PERIMETER_MID_ZN_1 AIR TERMINAL INLET AIR NODE,15 ZONE DOAS
   Supply Air Path Node,Outlet Node,10,TZ_PERIMETER_MID_ZN_2 AIR TERMINAL INLET AIR NODE,15 ZONE DOAS
   Supply Air Path Node,Outlet Node,11,TZ_PERIMETER_MID_ZN_3 AIR TERMINAL INLET AIR NODE,15 ZONE DOAS
   Supply Air Path Node,Outlet Node,12,TZ_PERIMETER_MID_ZN_4 AIR TERMINAL INLET AIR NODE,15 ZONE DOAS
   Supply Air Path Node,Outlet Node,13,TZ_PERIMETER_TOP_ZN_1 AIR TERMINAL INLET AIR NODE,15 ZONE DOAS
   Supply Air Path Node,Outlet Node,14,TZ_PERIMETER_TOP_ZN_2 AIR TERMINAL INLET AIR NODE,15 ZONE DOAS
   Supply Air Path Node,Outlet Node,15,TZ_PERIMETER_TOP_ZN_3 AIR TERMINAL INLET AIR NODE,15 ZONE DOAS
   Supply Air Path Node,Outlet Node,16,TZ_PERIMETER_TOP_ZN_4 AIR TERMINAL INLET AIR NODE,15 ZONE DOAS
 Supply Air Path,2,5 ZONE DOAS 5 ZONE DOAS DEMAND INLET NODE SUPPLY PATH,5 ZONE DOAS
   #Components on Supply Air Path,1
   Supply Air Path Component,1,AIRLOOPHVAC:ZONESPLITTER,AIR LOOP HVAC ZONE SPLITTER 1,5 ZONE DOAS
     #Outlet Nodes on Supply Air Path Component,5
     Supply Air Path Component Nodes,1,AIRLOOPHVAC:ZONESPLITTER,AIR LOOP HVAC ZONE SPLITTER 1,5 ZONE DOAS DEMAND INLET NODE,TZ_CORE_GROUND AIR TERMINAL INLET AIR NODE,5 ZONE DOAS
     Supply Air Path Component Nodes,2,AIRLOOPHVAC:ZONESPLITTER,AIR LOOP HVAC ZONE SPLITTER 1,5 ZONE DOAS DEMAND INLET NODE,TZ_PERIMETER_GROUND_ZN_1 AIR TERMINAL INLET AIR NODE,5 ZONE DOAS
     Supply Air Path Component Nodes,3,AIRLOOPHVAC:ZONESPLITTER,AIR LOOP HVAC ZONE SPLITTER 1,5 ZONE DOAS DEMAND INLET NODE,TZ_PERIMETER_GROUND_ZN_2 AIR TERMINAL INLET AIR NODE,5 ZONE DOAS
     Supply Air Path Component Nodes,4,AIRLOOPHVAC:ZONESPLITTER,AIR LOOP HVAC ZONE SPLITTER 1,5 ZONE DOAS DEMAND INLET NODE,TZ_PERIMETER_GROUND_ZN_3 AIR TERMINAL INLET AIR NODE,5 ZONE DOAS
     Supply Air Path Component Nodes,5,AIRLOOPHVAC:ZONESPLITTER,AIR LOOP HVAC ZONE SPLITTER 1,5 ZONE DOAS DEMAND INLET NODE,TZ_PERIMETER_GROUND_ZN_4 AIR TERMINAL INLET AIR NODE,5 ZONE DOAS
! <#Nodes on Supply Air Path>,<Number of Nodes>
! <Supply Air Path Node>,<Node Type>,<Node Count>,<Node Name>,<AirLoopHVAC Name>
#Nodes on Supply Air Path,6
   Supply Air Path Node,Inlet Node,1,5 ZONE DOAS DEMAND INLET NODE,5 ZONE DOAS
   Supply Air Path Node,Outlet Node,2,TZ_CORE_GROUND AIR TERMINAL INLET AIR NODE,5 ZONE DOAS
   Supply Air Path Node,Outlet Node,3,TZ_PERIMETER_GROUND_ZN_1 AIR TERMINAL INLET AIR NODE,5 ZONE DOAS
   Supply Air Path Node,Outlet Node,4,TZ_PERIMETER_GROUND_ZN_2 AIR TERMINAL INLET AIR NODE,5 ZONE DOAS
   Supply Air Path Node,Outlet Node,5,TZ_PERIMETER_GROUND_ZN_3 AIR TERMINAL INLET AIR NODE,5 ZONE DOAS
   Supply Air Path Node,Outlet Node,6,TZ_PERIMETER_GROUND_ZN_4 AIR TERMINAL INLET AIR NODE,5 ZONE DOAS
! ===============================================================
! <#Return Air Paths>,<Number of Return Air Paths>
 #Return Air Paths,2
! <Return Air Path>,<Return Air Path Count>,<Return Air Path Name>,<AirLoopHVAC Name>
! <#Components on Return Air Path>,<Number of Components>
! <Return Air Path Component>,<Component Count>,<Component Type>,<Component Name>,<AirLoopHVAC Name>
! <#Inlet Nodes on Return Air Path Component>,<Number of Nodes>
! <Return Air Path Component Nodes>,<Node Count>,<Component Type>,<Component Name>,<Inlet Node Name>,<Outlet Node Name>,<AirLoopHVAC Name>
 Return Air Path,1,15 ZONE DOAS RETURN PATH,15 ZONE DOAS
   #Components on Return Air Path,1
   Return Air Path Component,1,AIRLOOPHVAC:ZONEMIXER,AIR LOOP HVAC ZONE MIXER 2,15 ZONE DOAS
     #Inlet Nodes on Return Air Path Component,15
     Return Air Path Component Nodes,1,AIRLOOPHVAC:ZONEMIXER,AIR LOOP HVAC ZONE MIXER 2,TZ_CORE_BOTTOM RETURN AIR NODE,15 ZONE DOAS DEMAND OUTLET NODE,15 ZONE DOAS
     Return Air Path Component Nodes,2,AIRLOOPHVAC:ZONEMIXER,AIR LOOP HVAC ZONE MIXER 2,TZ_CORE_MID RETURN AIR NODE,15 ZONE DOAS DEMAND OUTLET NODE,15 ZONE DOAS
     Return Air Path Component Nodes,3,AIRLOOPHVAC:ZONEMIXER,AIR LOOP HVAC ZONE MIXER 2,TZ_CORE_TOP RETURN AIR NODE,15 ZONE DOAS DEMAND OUTLET NODE,15 ZONE DOAS
     Return Air Path Component Nodes,4,AIRLOOPHVAC:ZONEMIXER,AIR LOOP HVAC ZONE MIXER 2,TZ_PERIMETER_BOT_ZN_1 RETURN AIR NODE,15 ZONE DOAS DEMAND OUTLET NODE,15 ZONE DOAS
     Return Air Path Component Nodes,5,AIRLOOPHVAC:ZONEMIXER,AIR LOOP HVAC ZONE MIXER 2,TZ_PERIMETER_BOT_ZN_2 RETURN AIR NODE,15 ZONE DOAS DEMAND OUTLET NODE,15 ZONE DOAS
     Return Air Path Component Nodes,6,AIRLOOPHVAC:ZONEMIXER,AIR LOOP HVAC ZONE MIXER 2,TZ_PERIMETER_BOT_ZN_3 RETURN AIR NODE,15 ZONE DOAS DEMAND OUTLET NODE,15 ZONE DOAS
     Return Air Path Component Nodes,7,AIRLOOPHVAC:ZONEMIXER,AIR LOOP HVAC ZONE MIXER 2,TZ_PERIMETER_BOT_ZN_4 RETURN AIR NODE,15 ZONE DOAS DEMAND OUTLET NODE,15 ZONE DOAS
     Return Air Path Component Nodes,8,AIRLOOPHVAC:ZONEMIXER,AIR LOOP HVAC ZONE MIXER 2,TZ_PERIMETER_MID_ZN_1 RETURN AIR NODE,15 ZONE DOAS DEMAND OUTLET NODE,15 ZONE DOAS
     Return Air Path Component Nodes,9,AIRLOOPHVAC:ZONEMIXER,AIR LOOP HVAC ZONE MIXER 2,TZ_PERIMETER_MID_ZN_2 RETURN AIR NODE,15 ZONE DOAS DEMAND OUTLET NODE,15 ZONE DOAS
     Return Air Path Component Nodes,10,AIRLOOPHVAC:ZONEMIXER,AIR LOOP HVAC ZONE MIXER 2,TZ_PERIMETER_MID_ZN_3 RETURN AIR NODE,15 ZONE DOAS DEMAND OUTLET NODE,15 ZONE DOAS
     Return Air Path Component Nodes,11,AIRLOOPHVAC:ZONEMIXER,AIR LOOP HVAC ZONE MIXER 2,TZ_PERIMETER_MID_ZN_4 RETURN AIR NODE,15 ZONE DOAS DEMAND OUTLET NODE,15 ZONE DOAS
     Return Air Path Component Nodes,12,AIRLOOPHVAC:ZONEMIXER,AIR LOOP HVAC ZONE MIXER 2,TZ_PERIMETER_TOP_ZN_1 RETURN AIR NODE,15 ZONE DOAS DEMAND OUTLET NODE,15 ZONE DOAS
     Return Air Path Component Nodes,13,AIRLOOPHVAC:ZONEMIXER,AIR LOOP HVAC ZONE MIXER 2,TZ_PERIMETER_TOP_ZN_2 RETURN AIR NODE,15 ZONE DOAS DEMAND OUTLET NODE,15 ZONE DOAS
     Return Air Path Component Nodes,14,AIRLOOPHVAC:ZONEMIXER,AIR LOOP HVAC ZONE MIXER 2,TZ_PERIMETER_TOP_ZN_3 RETURN AIR NODE,15 ZONE DOAS DEMAND OUTLET NODE,15 ZONE DOAS
     Return Air Path Component Nodes,15,AIRLOOPHVAC:ZONEMIXER,AIR LOOP HVAC ZONE MIXER 2,TZ_PERIMETER_TOP_ZN_4 RETURN AIR NODE,15 ZONE DOAS DEMAND OUTLET NODE,15 ZONE DOAS
! <#Nodes on Return Air Path>,<Number of Nodes>
! <Return Air Path Node>,<Node Type>,<Node Count>,<Node Name>,<AirLoopHVAC Name>
   #Nodes on Return Air Path,16
   Return Air Path Node,Outlet Node,1,15 ZONE DOAS DEMAND OUTLET NODE,15 ZONE DOAS
   Return Air Path Node,Inlet Node,2,TZ_CORE_BOTTOM RETURN AIR NODE,15 ZONE DOAS
   Return Air Path Node,Inlet Node,3,TZ_CORE_MID RETURN AIR NODE,15 ZONE DOAS
   Return Air Path Node,Inlet Node,4,TZ_CORE_TOP RETURN AIR NODE,15 ZONE DOAS
   Return Air Path Node,Inlet Node,5,TZ_PERIMETER_BOT_ZN_1 RETURN AIR NODE,15 ZONE DOAS
   Return Air Path Node,Inlet Node,6,TZ_PERIMETER_BOT_ZN_2 RETURN AIR NODE,15 ZONE DOAS
   Return Air Path Node,Inlet Node,7,TZ_PERIMETER_BOT_ZN_3 RETURN AIR NODE,15 ZONE DOAS
   Return Air Path Node,Inlet Node,8,TZ_PERIMETER_BOT_ZN_4 RETURN AIR NODE,15 ZONE DOAS
   Return Air Path Node,Inlet Node,9,TZ_PERIMETER_MID_ZN_1 RETURN AIR NODE,15 ZONE DOAS
   Return Air Path Node,Inlet Node,10,TZ_PERIMETER_MID_ZN_2 RETURN AIR NODE,15 ZONE DOAS
   Return Air Path Node,Inlet Node,11,TZ_PERIMETER_MID_ZN_3 RETURN AIR NODE,15 ZONE DOAS
   Return Air Path Node,Inlet Node,12,TZ_PERIMETER_MID_ZN_4 RETURN AIR NODE,15 ZONE DOAS
   Return Air Path Node,Inlet Node,13,TZ_PERIMETER_TOP_ZN_1 RETURN AIR NODE,15 ZONE DOAS
   Return Air Path Node,Inlet Node,14,TZ_PERIMETER_TOP_ZN_2 RETURN AIR NODE,15 ZONE DOAS
   Return Air Path Node,Inlet Node,15,TZ_PERIMETER_TOP_ZN_3 RETURN AIR NODE,15 ZONE DOAS
   Return Air Path Node,Inlet Node,16,TZ_PERIMETER_TOP_ZN_4 RETURN AIR NODE,15 ZONE DOAS
 Return Air Path,2,5 ZONE DOAS RETURN PATH,5 ZONE DOAS
   #Components on Return Air Path,1
   Return Air Path Component,1,AIRLOOPHVAC:ZONEMIXER,AIR LOOP HVAC ZONE MIXER 1,5 ZONE DOAS
     #Inlet Nodes on Return Air Path Component,5
     Return Air Path Component Nodes,1,AIRLOOPHVAC:ZONEMIXER,AIR LOOP HVAC ZONE MIXER 1,TZ_CORE_GROUND RETURN AIR NODE,5 ZONE DOAS DEMAND OUTLET NODE,5 ZONE DOAS
     Return Air Path Component Nodes,2,AIRLOOPHVAC:ZONEMIXER,AIR LOOP HVAC ZONE MIXER 1,TZ_PERIMETER_GROUND_ZN_1 RETURN AIR NODE,5 ZONE DOAS DEMAND OUTLET NODE,5 ZONE DOAS
     Return Air Path Component Nodes,3,AIRLOOPHVAC:ZONEMIXER,AIR LOOP HVAC ZONE MIXER 1,TZ_PERIMETER_GROUND_ZN_2 RETURN AIR NODE,5 ZONE DOAS DEMAND OUTLET NODE,5 ZONE DOAS
     Return Air Path Component Nodes,4,AIRLOOPHVAC:ZONEMIXER,AIR LOOP HVAC ZONE MIXER 1,TZ_PERIMETER_GROUND_ZN_3 RETURN AIR NODE,5 ZONE DOAS DEMAND OUTLET NODE,5 ZONE DOAS
     Return Air Path Component Nodes,5,AIRLOOPHVAC:ZONEMIXER,AIR LOOP HVAC ZONE MIXER 1,TZ_PERIMETER_GROUND_ZN_4 RETURN AIR NODE,5 ZONE DOAS DEMAND OUTLET NODE,5 ZONE DOAS
! <#Nodes on Return Air Path>,<Number of Nodes>
! <Return Air Path Node>,<Node Type>,<Node Count>,<Node Name>,<AirLoopHVAC Name>
   #Nodes on Return Air Path,6
   Return Air Path Node,Outlet Node,1,5 ZONE DOAS DEMAND OUTLET NODE,5 ZONE DOAS
   Return Air Path Node,Inlet Node,2,TZ_CORE_GROUND RETURN AIR NODE,5 ZONE DOAS
   Return Air Path Node,Inlet Node,3,TZ_PERIMETER_GROUND_ZN_1 RETURN AIR NODE,5 ZONE DOAS
   Return Air Path Node,Inlet Node,4,TZ_PERIMETER_GROUND_ZN_2 RETURN AIR NODE,5 ZONE DOAS
   Return Air Path Node,Inlet Node,5,TZ_PERIMETER_GROUND_ZN_3 RETURN AIR NODE,5 ZONE DOAS
   Return Air Path Node,Inlet Node,6,TZ_PERIMETER_GROUND_ZN_4 RETURN AIR NODE,5 ZONE DOAS
! ===============================================================
! #Outdoor Air Nodes,<Number of Outdoor Air Nodes>
 #Outdoor Air Nodes,3
! <Outdoor Air Node>,<NodeNumber>,<Node Name>
 Outdoor Air Node,165,15 ZONE DOAS OUTDOOR AIR NODE
 Outdoor Air Node,166,5 ZONE DOAS OUTDOOR AIR NODE
 Outdoor Air Node,167,MODEL OUTDOOR AIR NODE
! ===============================================================
! <#Component Sets>,<Number of Component Sets>
 #Component Sets,123
! <Component Set>,<Component Set Count>,<Parent Object Type>,<Parent Object Name>,<Component Type>,<Component Name>,<Inlet Node ID>,<Outlet Node ID>,<Description>
 Component Set,1,BRANCH,15 ZONE DOAS MAIN BRANCH,FAN:CONSTANTVOLUME,DOAS EXHAUST FAN 1,15 ZONE DOAS SUPPLY INLET NODE,DOAS EXHAUST FAN 1 OUTLET AIR NODE,Air Nodes
 Component Set,2,BRANCH,15 ZONE DOAS MAIN BRANCH,AIRLOOPHVAC:OUTDOORAIRSYSTEM,15 ZONE DOAS OA SYSTEM,DOAS EXHAUST FAN 1 OUTLET AIR NODE,15 ZONE DOAS MIXED AIR NODE,Air Nodes
 Component Set,3,BRANCH,15 ZONE DOAS MAIN BRANCH,COILSYSTEM:COOLING:DX,15 ZONE DOAS 2SPD DX CLG COIL COILSYSTEM,15 ZONE DOAS MIXED AIR NODE,15 ZONE DOAS 2SPD DX CLG COIL OUTLET AIR NODE,Air Nodes
 Component Set,4,BRANCH,15 ZONE DOAS MAIN BRANCH,COILSYSTEM:HEATING:DX,15 ZONE DOAS HTG COIL 182 CLG KBTU/HR 3.3COPH COILSYSTEM,15 ZONE DOAS 2SPD DX CLG COIL OUTLET AIR NODE,15 ZONE DOAS HTG COIL OUTLET AIR NODE,Air Nodes
 Component Set,5,BRANCH,15 ZONE DOAS MAIN BRANCH,COIL:HEATING:ELECTRIC,15 ZONE DOAS BACKUP HTG COIL,15 ZONE DOAS HTG COIL OUTLET AIR NODE,15 ZONE DOAS BACKUP HTG COIL OUTLET AIR NODE,Air Nodes
 Component Set,6,BRANCH,15 ZONE DOAS MAIN BRANCH,FAN:CONSTANTVOLUME,DOAS SUPPLY FAN 1,15 ZONE DOAS BACKUP HTG COIL OUTLET AIR NODE,15 ZONE DOAS SUPPLY OUTLET NODE,Air Nodes
 Component Set,7,BRANCH,5 ZONE DOAS MAIN BRANCH,FAN:CONSTANTVOLUME,DOAS EXHAUST FAN,5 ZONE DOAS SUPPLY INLET NODE,DOAS EXHAUST FAN OUTLET AIR NODE,Air Nodes
 Component Set,8,BRANCH,5 ZONE DOAS MAIN BRANCH,AIRLOOPHVAC:OUTDOORAIRSYSTEM,5 ZONE DOAS OA SYSTEM,DOAS EXHAUST FAN OUTLET AIR NODE,5 ZONE DOAS MIXED AIR NODE,Air Nodes
 Component Set,9,BRANCH,5 ZONE DOAS MAIN BRANCH,COILSYSTEM:COOLING:DX,5 ZONE DOAS 2SPD DX CLG COIL COILSYSTEM,5 ZONE DOAS MIXED AIR NODE,5 ZONE DOAS 2SPD DX CLG COIL OUTLET AIR NODE,Air Nodes
 Component Set,10,BRANCH,5 ZONE DOAS MAIN BRANCH,COILSYSTEM:HEATING:DX,5 ZONE DOAS HTG COIL 166 CLG KBTU/HR 3.3COPH COILSYSTEM,5 ZONE DOAS 2SPD DX CLG COIL OUTLET AIR NODE,5 ZONE DOAS HTG COIL OUTLET AIR NODE,Air Nodes
 Component Set,11,BRANCH,5 ZONE DOAS MAIN BRANCH,COIL:HEATING:ELECTRIC,5 ZONE DOAS BACKUP HTG COIL,5 ZONE DOAS HTG COIL OUTLET AIR NODE,5 ZONE DOAS BACKUP HTG COIL OUTLET AIR NODE,Air Nodes
 Component Set,12,BRANCH,5 ZONE DOAS MAIN BRANCH,FAN:CONSTANTVOLUME,DOAS SUPPLY FAN,5 ZONE DOAS BACKUP HTG COIL OUTLET AIR NODE,5 ZONE DOAS SUPPLY OUTLET NODE,Air Nodes
 Component Set,13,BRANCH,MAIN SERVICE WATER LOOP SUPPLY INLET BRANCH,PUMP:CONSTANTSPEED,SERVICE WATER LOOP PUMP,MAIN SERVICE WATER LOOP SUPPLY INLET NODE,SERVICE WATER LOOP PUMP OUTLET WATER NODE,Water Nodes
 Component Set,14,BRANCH,MAIN SERVICE WATER LOOP SUPPLY BRANCH 1,WATERHEATER:MIXED,100GAL NATURAL GAS WATER HEATER - 100KBTU/HR 0.802 THERM EFF 0.808 THERM EFF,100GAL NATURAL GAS WATER HEATER - 100KBTU/HR 0.802 THERM EFF SUPPLY INLET WATER NODE,100GAL NATURAL GAS WATER HEATER - 100KBTU/HR 0.802 THERM EFF SUPPLY OUTLET WATER NODE,Use Side Water Nodes
 Component Set,15,BRANCH,MAIN SERVICE WATER LOOP SUPPLY BRANCH 2,PIPE:ADIABATIC,PIPE ADIABATIC 1,PIPE ADIABATIC 1 INLET WATER NODE,PIPE ADIABATIC 1 OUTLET WATER NODE,Pipe Nodes
 Component Set,16,BRANCH,MAIN SERVICE WATER LOOP SUPPLY OUTLET BRANCH,PIPE:ADIABATIC,PIPE ADIABATIC 3,PIPE ADIABATIC 3 INLET WATER NODE,MAIN SERVICE WATER LOOP SUPPLY OUTLET NODE,Pipe Nodes
 Component Set,17,BRANCH,MAIN SERVICE WATER LOOP DEMAND INLET BRANCH,PIPE:ADIABATIC,PIPE ADIABATIC 4,MAIN SERVICE WATER LOOP DEMAND INLET NODE,PIPE ADIABATIC 4 OUTLET WATER NODE,Pipe Nodes
 Component Set,18,BRANCH,MAIN SERVICE WATER LOOP DEMAND BRANCH 1,PIPE:ADIABATIC,PIPE ADIABATIC 2,PIPE ADIABATIC 2 INLET WATER NODE,PIPE ADIABATIC 2 OUTLET WATER NODE,Pipe Nodes
 Component Set,19,BRANCH,MAIN SERVICE WATER LOOP DEMAND BRANCH 2,WATERUSE:CONNECTIONS,WATER USE CONNECTIONS 1,WATER USE CONNECTIONS 1 INLET WATER NODE,WATER USE CONNECTIONS 1 OUTLET WATER NODE,DHW Nodes
 Component Set,20,BRANCH,MAIN SERVICE WATER LOOP DEMAND BRANCH 3,WATERUSE:CONNECTIONS,WATER USE CONNECTIONS 2,WATER USE CONNECTIONS 2 INLET WATER NODE,WATER USE CONNECTIONS 2 OUTLET WATER NODE,DHW Nodes
 Component Set,21,BRANCH,MAIN SERVICE WATER LOOP DEMAND BRANCH 4,WATERUSE:CONNECTIONS,WATER USE CONNECTIONS 3,WATER USE CONNECTIONS 3 INLET WATER NODE,WATER USE CONNECTIONS 3 OUTLET WATER NODE,DHW Nodes
 Component Set,22,BRANCH,MAIN SERVICE WATER LOOP DEMAND BRANCH 5,WATERUSE:CONNECTIONS,WATER USE CONNECTIONS 4,WATER USE CONNECTIONS 4 INLET WATER NODE,WATER USE CONNECTIONS 4 OUTLET WATER NODE,DHW Nodes
 Component Set,23,BRANCH,MAIN SERVICE WATER LOOP DEMAND BRANCH 6,WATERUSE:CONNECTIONS,WATER USE CONNECTIONS 5,WATER USE CONNECTIONS 5 INLET WATER NODE,WATER USE CONNECTIONS 5 OUTLET WATER NODE,DHW Nodes
 Component Set,24,BRANCH,MAIN SERVICE WATER LOOP DEMAND BRANCH 7,WATERUSE:CONNECTIONS,WATER USE CONNECTIONS 6,WATER USE CONNECTIONS 6 INLET WATER NODE,WATER USE CONNECTIONS 6 OUTLET WATER NODE,DHW Nodes
 Component Set,25,BRANCH,MAIN SERVICE WATER LOOP DEMAND BRANCH 8,WATERUSE:CONNECTIONS,WATER USE CONNECTIONS 7,WATER USE CONNECTIONS 7 INLET WATER NODE,WATER USE CONNECTIONS 7 OUTLET WATER NODE,DHW Nodes
 Component Set,26,BRANCH,MAIN SERVICE WATER LOOP DEMAND BRANCH 9,WATERUSE:CONNECTIONS,WATER USE CONNECTIONS 8,WATER USE CONNECTIONS 8 INLET WATER NODE,WATER USE CONNECTIONS 8 OUTLET WATER NODE,DHW Nodes
 Component Set,27,BRANCH,MAIN SERVICE WATER LOOP DEMAND BRANCH 10,WATERUSE:CONNECTIONS,WATER USE CONNECTIONS 9,WATER USE CONNECTIONS 9 INLET WATER NODE,WATER USE CONNECTIONS 9 OUTLET WATER NODE,DHW Nodes
 Component Set,28,BRANCH,MAIN SERVICE WATER LOOP DEMAND BRANCH 11,WATERUSE:CONNECTIONS,WATER USE CONNECTIONS 10,WATER USE CONNECTIONS 10 INLET WATER NODE,WATER USE CONNECTIONS 10 OUTLET WATER NODE,DHW Nodes
 Component Set,29,BRANCH,MAIN SERVICE WATER LOOP DEMAND BRANCH 12,WATERUSE:CONNECTIONS,WATER USE CONNECTIONS 11,WATER USE CONNECTIONS 11 INLET WATER NODE,WATER USE CONNECTIONS 11 OUTLET WATER NODE,DHW Nodes
 Component Set,30,BRANCH,MAIN SERVICE WATER LOOP DEMAND BRANCH 13,WATERUSE:CONNECTIONS,WATER USE CONNECTIONS 12,WATER USE CONNECTIONS 12 INLET WATER NODE,WATER USE CONNECTIONS 12 OUTLET WATER NODE,DHW Nodes
 Component Set,31,BRANCH,MAIN SERVICE WATER LOOP DEMAND BRANCH 14,WATERUSE:CONNECTIONS,WATER USE CONNECTIONS 13,WATER USE CONNECTIONS 13 INLET WATER NODE,WATER USE CONNECTIONS 13 OUTLET WATER NODE,DHW Nodes
 Component Set,32,BRANCH,MAIN SERVICE WATER LOOP DEMAND BRANCH 15,WATERUSE:CONNECTIONS,WATER USE CONNECTIONS 14,WATER USE CONNECTIONS 14 INLET WATER NODE,WATER USE CONNECTIONS 14 OUTLET WATER NODE,DHW Nodes
 Component Set,33,BRANCH,MAIN SERVICE WATER LOOP DEMAND BRANCH 16,WATERUSE:CONNECTIONS,WATER USE CONNECTIONS 15,WATER USE CONNECTIONS 15 INLET WATER NODE,WATER USE CONNECTIONS 15 OUTLET WATER NODE,DHW Nodes
 Component Set,34,BRANCH,MAIN SERVICE WATER LOOP DEMAND BYPASS BRANCH,PIPE:ADIABATIC,MAIN SERVICE WATER LOOP DEMAND BYPASS PIPE,MAIN SERVICE WATER LOOP DEMAND BYPASS PIPE INLET NODE,MAIN SERVICE WATER LOOP DEMAND BYPASS PIPE OUTLET NODE,Pipe Nodes
 Component Set,35,BRANCH,MAIN SERVICE WATER LOOP DEMAND OUTLET BRANCH,PIPE:ADIABATIC,PIPE ADIABATIC 5,PIPE ADIABATIC 5 INLET WATER NODE,MAIN SERVICE WATER LOOP DEMAND OUTLET NODE,Pipe Nodes
 Component Set,36,ZONEHVAC:AIRDISTRIBUTIONUNIT,ADU TZ_CORE_BOTTOM AIR TERMINAL,AIRTERMINAL:SINGLEDUCT:CONSTANTVOLUME:NOREHEAT,TZ_CORE_BOTTOM AIR TERMINAL,TZ_CORE_BOTTOM AIR TERMINAL INLET AIR NODE,TZ_CORE_BOTTOM AIR TERMINAL OUTLET AIR NODE,Air Nodes
 Component Set,37,ZONEHVAC:AIRDISTRIBUTIONUNIT,ADU TZ_CORE_GROUND AIR TERMINAL,AIRTERMINAL:SINGLEDUCT:CONSTANTVOLUME:NOREHEAT,TZ_CORE_GROUND AIR TERMINAL,TZ_CORE_GROUND AIR TERMINAL INLET AIR NODE,TZ_CORE_GROUND AIR TERMINAL OUTLET AIR NODE,Air Nodes
 Component Set,38,ZONEHVAC:AIRDISTRIBUTIONUNIT,ADU TZ_CORE_MID AIR TERMINAL,AIRTERMINAL:SINGLEDUCT:CONSTANTVOLUME:NOREHEAT,TZ_CORE_MID AIR TERMINAL,TZ_CORE_MID AIR TERMINAL INLET AIR NODE,TZ_CORE_MID AIR TERMINAL OUTLET AIR NODE,Air Nodes
 Component Set,39,ZONEHVAC:AIRDISTRIBUTIONUNIT,ADU TZ_CORE_TOP AIR TERMINAL,AIRTERMINAL:SINGLEDUCT:CONSTANTVOLUME:NOREHEAT,TZ_CORE_TOP AIR TERMINAL,TZ_CORE_TOP AIR TERMINAL INLET AIR NODE,TZ_CORE_TOP AIR TERMINAL OUTLET AIR NODE,Air Nodes
 Component Set,40,ZONEHVAC:AIRDISTRIBUTIONUNIT,ADU TZ_PERIMETER_BOT_ZN_1 AIR TERMINAL,AIRTERMINAL:SINGLEDUCT:CONSTANTVOLUME:NOREHEAT,TZ_PERIMETER_BOT_ZN_1 AIR TERMINAL,TZ_PERIMETER_BOT_ZN_1 AIR TERMINAL INLET AIR NODE,TZ_PERIMETER_BOT_ZN_1 AIR TERMINAL OUTLET AIR NODE,Air Nodes
 Component Set,41,ZONEHVAC:AIRDISTRIBUTIONUNIT,ADU TZ_PERIMETER_BOT_ZN_2 AIR TERMINAL,AIRTERMINAL:SINGLEDUCT:CONSTANTVOLUME:NOREHEAT,TZ_PERIMETER_BOT_ZN_2 AIR TERMINAL,TZ_PERIMETER_BOT_ZN_2 AIR TERMINAL INLET AIR NODE,TZ_PERIMETER_BOT_ZN_2 AIR TERMINAL OUTLET AIR NODE,Air Nodes
 Component Set,42,ZONEHVAC:AIRDISTRIBUTIONUNIT,ADU TZ_PERIMETER_BOT_ZN_3 AIR TERMINAL,AIRTERMINAL:SINGLEDUCT:CONSTANTVOLUME:NOREHEAT,TZ_PERIMETER_BOT_ZN_3 AIR TERMINAL,TZ_PERIMETER_BOT_ZN_3 AIR TERMINAL INLET AIR NODE,TZ_PERIMETER_BOT_ZN_3 AIR TERMINAL OUTLET AIR NODE,Air Nodes
 Component Set,43,ZONEHVAC:AIRDISTRIBUTIONUNIT,ADU TZ_PERIMETER_BOT_ZN_4 AIR TERMINAL,AIRTERMINAL:SINGLEDUCT:CONSTANTVOLUME:NOREHEAT,TZ_PERIMETER_BOT_ZN_4 AIR TERMINAL,TZ_PERIMETER_BOT_ZN_4 AIR TERMINAL INLET AIR NODE,TZ_PERIMETER_BOT_ZN_4 AIR TERMINAL OUTLET AIR NODE,Air Nodes
 Component Set,44,ZONEHVAC:AIRDISTRIBUTIONUNIT,ADU TZ_PERIMETER_GROUND_ZN_1 AIR TERMINAL,AIRTERMINAL:SINGLEDUCT:CONSTANTVOLUME:NOREHEAT,TZ_PERIMETER_GROUND_ZN_1 AIR TERMINAL,TZ_PERIMETER_GROUND_ZN_1 AIR TERMINAL INLET AIR NODE,TZ_PERIMETER_GROUND_ZN_1 AIR TERMINAL OUTLET AIR NODE,Air Nodes
 Component Set,45,ZONEHVAC:AIRDISTRIBUTIONUNIT,ADU TZ_PERIMETER_GROUND_ZN_2 AIR TERMINAL,AIRTERMINAL:SINGLEDUCT:CONSTANTVOLUME:NOREHEAT,TZ_PERIMETER_GROUND_ZN_2 AIR TERMINAL,TZ_PERIMETER_GROUND_ZN_2 AIR TERMINAL INLET AIR NODE,TZ_PERIMETER_GROUND_ZN_2 AIR TERMINAL OUTLET AIR NODE,Air Nodes
 Component Set,46,ZONEHVAC:AIRDISTRIBUTIONUNIT,ADU TZ_PERIMETER_GROUND_ZN_3 AIR TERMINAL,AIRTERMINAL:SINGLEDUCT:CONSTANTVOLUME:NOREHEAT,TZ_PERIMETER_GROUND_ZN_3 AIR TERMINAL,TZ_PERIMETER_GROUND_ZN_3 AIR TERMINAL INLET AIR NODE,TZ_PERIMETER_GROUND_ZN_3 AIR TERMINAL OUTLET AIR NODE,Air Nodes
 Component Set,47,ZONEHVAC:AIRDISTRIBUTIONUNIT,ADU TZ_PERIMETER_GROUND_ZN_4 AIR TERMINAL,AIRTERMINAL:SINGLEDUCT:CONSTANTVOLUME:NOREHEAT,TZ_PERIMETER_GROUND_ZN_4 AIR TERMINAL,TZ_PERIMETER_GROUND_ZN_4 AIR TERMINAL INLET AIR NODE,TZ_PERIMETER_GROUND_ZN_4 AIR TERMINAL OUTLET AIR NODE,Air Nodes
 Component Set,48,ZONEHVAC:AIRDISTRIBUTIONUNIT,ADU TZ_PERIMETER_MID_ZN_1 AIR TERMINAL,AIRTERMINAL:SINGLEDUCT:CONSTANTVOLUME:NOREHEAT,TZ_PERIMETER_MID_ZN_1 AIR TERMINAL,TZ_PERIMETER_MID_ZN_1 AIR TERMINAL INLET AIR NODE,TZ_PERIMETER_MID_ZN_1 AIR TERMINAL OUTLET AIR NODE,Air Nodes
 Component Set,49,ZONEHVAC:AIRDISTRIBUTIONUNIT,ADU TZ_PERIMETER_MID_ZN_2 AIR TERMINAL,AIRTERMINAL:SINGLEDUCT:CONSTANTVOLUME:NOREHEAT,TZ_PERIMETER_MID_ZN_2 AIR TERMINAL,TZ_PERIMETER_MID_ZN_2 AIR TERMINAL INLET AIR NODE,TZ_PERIMETER_MID_ZN_2 AIR TERMINAL OUTLET AIR NODE,Air Nodes
 Component Set,50,ZONEHVAC:AIRDISTRIBUTIONUNIT,ADU TZ_PERIMETER_MID_ZN_3 AIR TERMINAL,AIRTERMINAL:SINGLEDUCT:CONSTANTVOLUME:NOREHEAT,TZ_PERIMETER_MID_ZN_3 AIR TERMINAL,TZ_PERIMETER_MID_ZN_3 AIR TERMINAL INLET AIR NODE,TZ_PERIMETER_MID_ZN_3 AIR TERMINAL OUTLET AIR NODE,Air Nodes
 Component Set,51,ZONEHVAC:AIRDISTRIBUTIONUNIT,ADU TZ_PERIMETER_MID_ZN_4 AIR TERMINAL,AIRTERMINAL:SINGLEDUCT:CONSTANTVOLUME:NOREHEAT,TZ_PERIMETER_MID_ZN_4 AIR TERMINAL,TZ_PERIMETER_MID_ZN_4 AIR TERMINAL INLET AIR NODE,TZ_PERIMETER_MID_ZN_4 AIR TERMINAL OUTLET AIR NODE,Air Nodes
 Component Set,52,ZONEHVAC:AIRDISTRIBUTIONUNIT,ADU TZ_PERIMETER_TOP_ZN_1 AIR TERMINAL,AIRTERMINAL:SINGLEDUCT:CONSTANTVOLUME:NOREHEAT,TZ_PERIMETER_TOP_ZN_1 AIR TERMINAL,TZ_PERIMETER_TOP_ZN_1 AIR TERMINAL INLET AIR NODE,TZ_PERIMETER_TOP_ZN_1 AIR TERMINAL OUTLET AIR NODE,Air Nodes
 Component Set,53,ZONEHVAC:AIRDISTRIBUTIONUNIT,ADU TZ_PERIMETER_TOP_ZN_2 AIR TERMINAL,AIRTERMINAL:SINGLEDUCT:CONSTANTVOLUME:NOREHEAT,TZ_PERIMETER_TOP_ZN_2 AIR TERMINAL,TZ_PERIMETER_TOP_ZN_2 AIR TERMINAL INLET AIR NODE,TZ_PERIMETER_TOP_ZN_2 AIR TERMINAL OUTLET AIR NODE,Air Nodes
 Component Set,54,ZONEHVAC:AIRDISTRIBUTIONUNIT,ADU TZ_PERIMETER_TOP_ZN_3 AIR TERMINAL,AIRTERMINAL:SINGLEDUCT:CONSTANTVOLUME:NOREHEAT,TZ_PERIMETER_TOP_ZN_3 AIR TERMINAL,TZ_PERIMETER_TOP_ZN_3 AIR TERMINAL INLET AIR NODE,TZ_PERIMETER_TOP_ZN_3 AIR TERMINAL OUTLET AIR NODE,Air Nodes
 Component Set,55,ZONEHVAC:AIRDISTRIBUTIONUNIT,ADU TZ_PERIMETER_TOP_ZN_4 AIR TERMINAL,AIRTERMINAL:SINGLEDUCT:CONSTANTVOLUME:NOREHEAT,TZ_PERIMETER_TOP_ZN_4 AIR TERMINAL,TZ_PERIMETER_TOP_ZN_4 AIR TERMINAL INLET AIR NODE,TZ_PERIMETER_TOP_ZN_4 AIR TERMINAL OUTLET AIR NODE,Air Nodes
 Component Set,56,ZONEHVAC:TERMINALUNIT:VARIABLEREFRIGERANTFLOW,TZ_CORE_BOTTOM VRF TERMINAL UNIT,FAN:ONOFF,TZ_CORE_BOTTOM VRF UNIT CYCLING FAN,TZ_CORE_BOTTOM VRF TERMINAL UNIT HEATING COIL OUTLET NODE,TZ_CORE_BOTTOM VRF TERMINAL UNIT OUTLET AIR NODE,Air Nodes
 Component Set,57,ZONEHVAC:TERMINALUNIT:VARIABLEREFRIGERANTFLOW,TZ_CORE_GROUND VRF TERMINAL UNIT,FAN:ONOFF,TZ_CORE_GROUND VRF UNIT CYCLING FAN,TZ_CORE_GROUND VRF TERMINAL UNIT HEATING COIL OUTLET NODE,TZ_CORE_GROUND VRF TERMINAL UNIT OUTLET AIR NODE,Air Nodes
 Component Set,58,ZONEHVAC:TERMINALUNIT:VARIABLEREFRIGERANTFLOW,TZ_CORE_MID VRF TERMINAL UNIT,FAN:ONOFF,TZ_CORE_MID VRF UNIT CYCLING FAN,TZ_CORE_MID VRF TERMINAL UNIT HEATING COIL OUTLET NODE,TZ_CORE_MID VRF TERMINAL UNIT OUTLET AIR NODE,Air Nodes
 Component Set,59,ZONEHVAC:TERMINALUNIT:VARIABLEREFRIGERANTFLOW,TZ_CORE_TOP VRF TERMINAL UNIT,FAN:ONOFF,TZ_CORE_TOP VRF UNIT CYCLING FAN,TZ_CORE_TOP VRF TERMINAL UNIT HEATING COIL OUTLET NODE,TZ_CORE_TOP VRF TERMINAL UNIT OUTLET AIR NODE,Air Nodes
 Component Set,60,ZONEHVAC:TERMINALUNIT:VARIABLEREFRIGERANTFLOW,TZ_PERIMETER_BOT_ZN_1 VRF TERMINAL UNIT,FAN:ONOFF,TZ_PERIMETER_BOT_ZN_1 VRF UNIT CYCLING FAN,TZ_PERIMETER_BOT_ZN_1 VRF TERMINAL UNIT HEATING COIL OUTLET NODE,TZ_PERIMETER_BOT_ZN_1 VRF TERMINAL UNIT OUTLET AIR NODE,Air Nodes
 Component Set,61,ZONEHVAC:TERMINALUNIT:VARIABLEREFRIGERANTFLOW,TZ_PERIMETER_BOT_ZN_2 VRF TERMINAL UNIT,FAN:ONOFF,TZ_PERIMETER_BOT_ZN_2 VRF UNIT CYCLING FAN,TZ_PERIMETER_BOT_ZN_2 VRF TERMINAL UNIT HEATING COIL OUTLET NODE,TZ_PERIMETER_BOT_ZN_2 VRF TERMINAL UNIT OUTLET AIR NODE,Air Nodes
 Component Set,62,ZONEHVAC:TERMINALUNIT:VARIABLEREFRIGERANTFLOW,TZ_PERIMETER_BOT_ZN_3 VRF TERMINAL UNIT,FAN:ONOFF,TZ_PERIMETER_BOT_ZN_3 VRF UNIT CYCLING FAN,TZ_PERIMETER_BOT_ZN_3 VRF TERMINAL UNIT HEATING COIL OUTLET NODE,TZ_PERIMETER_BOT_ZN_3 VRF TERMINAL UNIT OUTLET AIR NODE,Air Nodes
 Component Set,63,ZONEHVAC:TERMINALUNIT:VARIABLEREFRIGERANTFLOW,TZ_PERIMETER_BOT_ZN_4 VRF TERMINAL UNIT,FAN:ONOFF,TZ_PERIMETER_BOT_ZN_4 VRF UNIT CYCLING FAN,TZ_PERIMETER_BOT_ZN_4 VRF TERMINAL UNIT HEATING COIL OUTLET NODE,TZ_PERIMETER_BOT_ZN_4 VRF TERMINAL UNIT OUTLET AIR NODE,Air Nodes
 Component Set,64,ZONEHVAC:TERMINALUNIT:VARIABLEREFRIGERANTFLOW,TZ_PERIMETER_GROUND_ZN_1 VRF TERMINAL UNIT,FAN:ONOFF,TZ_PERIMETER_GROUND_ZN_1 VRF UNIT CYCLING FAN,TZ_PERIMETER_GROUND_ZN_1 VRF TERMINAL UNIT HEATING COIL OUTLET NODE,TZ_PERIMETER_GROUND_ZN_1 VRF TERMINAL UNIT OUTLET AIR NODE,Air Nodes
 Component Set,65,ZONEHVAC:TERMINALUNIT:VARIABLEREFRIGERANTFLOW,TZ_PERIMETER_GROUND_ZN_2 VRF TERMINAL UNIT,FAN:ONOFF,TZ_PERIMETER_GROUND_ZN_2 VRF UNIT CYCLING FAN,TZ_PERIMETER_GROUND_ZN_2 VRF TERMINAL UNIT HEATING COIL OUTLET NODE,TZ_PERIMETER_GROUND_ZN_2 VRF TERMINAL UNIT OUTLET AIR NODE,Air Nodes
 Component Set,66,ZONEHVAC:TERMINALUNIT:VARIABLEREFRIGERANTFLOW,TZ_PERIMETER_GROUND_ZN_3 VRF TERMINAL UNIT,FAN:ONOFF,TZ_PERIMETER_GROUND_ZN_3 VRF UNIT CYCLING FAN,TZ_PERIMETER_GROUND_ZN_3 VRF TERMINAL UNIT HEATING COIL OUTLET NODE,TZ_PERIMETER_GROUND_ZN_3 VRF TERMINAL UNIT OUTLET AIR NODE,Air Nodes
 Component Set,67,ZONEHVAC:TERMINALUNIT:VARIABLEREFRIGERANTFLOW,TZ_PERIMETER_GROUND_ZN_4 VRF TERMINAL UNIT,FAN:ONOFF,TZ_PERIMETER_GROUND_ZN_4 VRF UNIT CYCLING FAN,TZ_PERIMETER_GROUND_ZN_4 VRF TERMINAL UNIT HEATING COIL OUTLET NODE,TZ_PERIMETER_GROUND_ZN_4 VRF TERMINAL UNIT OUTLET AIR NODE,Air Nodes
 Component Set,68,ZONEHVAC:TERMINALUNIT:VARIABLEREFRIGERANTFLOW,TZ_PERIMETER_MID_ZN_1 VRF TERMINAL UNIT,FAN:ONOFF,TZ_PERIMETER_MID_ZN_1 VRF UNIT CYCLING FAN,TZ_PERIMETER_MID_ZN_1 VRF TERMINAL UNIT HEATING COIL OUTLET NODE,TZ_PERIMETER_MID_ZN_1 VRF TERMINAL UNIT OUTLET AIR NODE,Air Nodes
 Component Set,69,ZONEHVAC:TERMINALUNIT:VARIABLEREFRIGERANTFLOW,TZ_PERIMETER_MID_ZN_2 VRF TERMINAL UNIT,FAN:ONOFF,TZ_PERIMETER_MID_ZN_2 VRF UNIT CYCLING FAN,TZ_PERIMETER_MID_ZN_2 VRF TERMINAL UNIT HEATING COIL OUTLET NODE,TZ_PERIMETER_MID_ZN_2 VRF TERMINAL UNIT OUTLET AIR NODE,Air Nodes
 Component Set,70,ZONEHVAC:TERMINALUNIT:VARIABLEREFRIGERANTFLOW,TZ_PERIMETER_MID_ZN_3 VRF TERMINAL UNIT,FAN:ONOFF,TZ_PERIMETER_MID_ZN_3 VRF UNIT CYCLING FAN,TZ_PERIMETER_MID_ZN_3 VRF TERMINAL UNIT HEATING COIL OUTLET NODE,TZ_PERIMETER_MID_ZN_3 VRF TERMINAL UNIT OUTLET AIR NODE,Air Nodes
 Component Set,71,ZONEHVAC:TERMINALUNIT:VARIABLEREFRIGERANTFLOW,TZ_PERIMETER_MID_ZN_4 VRF TERMINAL UNIT,FAN:ONOFF,TZ_PERIMETER_MID_ZN_4 VRF UNIT CYCLING FAN,TZ_PERIMETER_MID_ZN_4 VRF TERMINAL UNIT HEATING COIL OUTLET NODE,TZ_PERIMETER_MID_ZN_4 VRF TERMINAL UNIT OUTLET AIR NODE,Air Nodes
 Component Set,72,ZONEHVAC:TERMINALUNIT:VARIABLEREFRIGERANTFLOW,TZ_PERIMETER_TOP_ZN_1 VRF TERMINAL UNIT,FAN:ONOFF,TZ_PERIMETER_TOP_ZN_1 VRF UNIT CYCLING FAN,TZ_PERIMETER_TOP_ZN_1 VRF TERMINAL UNIT HEATING COIL OUTLET NODE,TZ_PERIMETER_TOP_ZN_1 VRF TERMINAL UNIT OUTLET AIR NODE,Air Nodes
 Component Set,73,ZONEHVAC:TERMINALUNIT:VARIABLEREFRIGERANTFLOW,TZ_PERIMETER_TOP_ZN_2 VRF TERMINAL UNIT,FAN:ONOFF,TZ_PERIMETER_TOP_ZN_2 VRF UNIT CYCLING FAN,TZ_PERIMETER_TOP_ZN_2 VRF TERMINAL UNIT HEATING COIL OUTLET NODE,TZ_PERIMETER_TOP_ZN_2 VRF TERMINAL UNIT OUTLET AIR NODE,Air Nodes
 Component Set,74,ZONEHVAC:TERMINALUNIT:VARIABLEREFRIGERANTFLOW,TZ_PERIMETER_TOP_ZN_3 VRF TERMINAL UNIT,FAN:ONOFF,TZ_PERIMETER_TOP_ZN_3 VRF UNIT CYCLING FAN,TZ_PERIMETER_TOP_ZN_3 VRF TERMINAL UNIT HEATING COIL OUTLET NODE,TZ_PERIMETER_TOP_ZN_3 VRF TERMINAL UNIT OUTLET AIR NODE,Air Nodes
 Component Set,75,ZONEHVAC:TERMINALUNIT:VARIABLEREFRIGERANTFLOW,TZ_PERIMETER_TOP_ZN_4 VRF TERMINAL UNIT,FAN:ONOFF,TZ_PERIMETER_TOP_ZN_4 VRF UNIT CYCLING FAN,TZ_PERIMETER_TOP_ZN_4 VRF TERMINAL UNIT HEATING COIL OUTLET NODE,TZ_PERIMETER_TOP_ZN_4 VRF TERMINAL UNIT OUTLET AIR NODE,Air Nodes
 Component Set,76,COILSYSTEM:HEATING:DX,15 ZONE DOAS HTG COIL 182 CLG KBTU/HR 3.3COPH COILSYSTEM,COIL:HEATING:DX:SINGLESPEED,15 ZONE DOAS HTG COIL 182 CLG KBTU/HR 3.3COPH,15 ZONE DOAS 2SPD DX CLG COIL OUTLET AIR NODE,15 ZONE DOAS HTG COIL OUTLET AIR NODE,Air Nodes
 Component Set,77,COILSYSTEM:HEATING:DX,5 ZONE DOAS HTG COIL 166 CLG KBTU/HR 3.3COPH COILSYSTEM,COIL:HEATING:DX:SINGLESPEED,5 ZONE DOAS HTG COIL 166 CLG KBTU/HR 3.3COPH,5 ZONE DOAS 2SPD DX CLG COIL OUTLET AIR NODE,5 ZONE DOAS HTG COIL OUTLET AIR NODE,Air Nodes
 Component Set,78,COILSYSTEM:COOLING:DX,15 ZONE DOAS 2SPD DX CLG COIL COILSYSTEM,COIL:COOLING:DX:TWOSPEED,15 ZONE DOAS 2SPD DX CLG COIL,15 ZONE DOAS MIXED AIR NODE,15 ZONE DOAS 2SPD DX CLG COIL OUTLET AIR NODE,Air Nodes
 Component Set,79,COILSYSTEM:COOLING:DX,5 ZONE DOAS 2SPD DX CLG COIL COILSYSTEM,COIL:COOLING:DX:TWOSPEED,5 ZONE DOAS 2SPD DX CLG COIL,5 ZONE DOAS MIXED AIR NODE,5 ZONE DOAS 2SPD DX CLG COIL OUTLET AIR NODE,Air Nodes
 Component Set,80,ZONEHVAC:TERMINALUNIT:VARIABLEREFRIGERANTFLOW,TZ_CORE_BOTTOM VRF TERMINAL UNIT,COIL:COOLING:DX:VARIABLEREFRIGERANTFLOW,ZONE HVAC TERMINAL UNIT VARIABLE REFRIGERANT FLOW 1 COOLING COIL 5,TZ_CORE_BOTTOM VRF TERMINAL UNIT INLET AIR NODE,TZ_CORE_BOTTOM VRF TERMINAL UNIT COOLING COIL OUTLET NODE,Air Nodes
 Component Set,81,ZONEHVAC:TERMINALUNIT:VARIABLEREFRIGERANTFLOW,TZ_CORE_GROUND VRF TERMINAL UNIT,COIL:COOLING:DX:VARIABLEREFRIGERANTFLOW,ZONE HVAC TERMINAL UNIT VARIABLE REFRIGERANT FLOW 1 COOLING COIL,TZ_CORE_GROUND VRF TERMINAL UNIT INLET AIR NODE,TZ_CORE_GROUND VRF TERMINAL UNIT COOLING COIL OUTLET NODE,Air Nodes
 Component Set,82,ZONEHVAC:TERMINALUNIT:VARIABLEREFRIGERANTFLOW,TZ_CORE_MID VRF TERMINAL UNIT,COIL:COOLING:DX:VARIABLEREFRIGERANTFLOW,ZONE HVAC TERMINAL UNIT VARIABLE REFRIGERANT FLOW 1 COOLING COIL 6,TZ_CORE_MID VRF TERMINAL UNIT INLET AIR NODE,TZ_CORE_MID VRF TERMINAL UNIT COOLING COIL OUTLET NODE,Air Nodes
 Component Set,83,ZONEHVAC:TERMINALUNIT:VARIABLEREFRIGERANTFLOW,TZ_CORE_TOP VRF TERMINAL UNIT,COIL:COOLING:DX:VARIABLEREFRIGERANTFLOW,ZONE HVAC TERMINAL UNIT VARIABLE REFRIGERANT FLOW 1 COOLING COIL 7,TZ_CORE_TOP VRF TERMINAL UNIT INLET AIR NODE,TZ_CORE_TOP VRF TERMINAL UNIT COOLING COIL OUTLET NODE,Air Nodes
 Component Set,84,ZONEHVAC:TERMINALUNIT:VARIABLEREFRIGERANTFLOW,TZ_PERIMETER_BOT_ZN_1 VRF TERMINAL UNIT,COIL:COOLING:DX:VARIABLEREFRIGERANTFLOW,ZONE HVAC TERMINAL UNIT VARIABLE REFRIGERANT FLOW 1 COOLING COIL 8,TZ_PERIMETER_BOT_ZN_1 VRF TERMINAL UNIT INLET AIR NODE,TZ_PERIMETER_BOT_ZN_1 VRF TERMINAL UNIT COOLING COIL OUTLET NODE,Air Nodes
 Component Set,85,ZONEHVAC:TERMINALUNIT:VARIABLEREFRIGERANTFLOW,TZ_PERIMETER_BOT_ZN_2 VRF TERMINAL UNIT,COIL:COOLING:DX:VARIABLEREFRIGERANTFLOW,ZONE HVAC TERMINAL UNIT VARIABLE REFRIGERANT FLOW 1 COOLING COIL 9,TZ_PERIMETER_BOT_ZN_2 VRF TERMINAL UNIT INLET AIR NODE,TZ_PERIMETER_BOT_ZN_2 VRF TERMINAL UNIT COOLING COIL OUTLET NODE,Air Nodes
 Component Set,86,ZONEHVAC:TERMINALUNIT:VARIABLEREFRIGERANTFLOW,TZ_PERIMETER_BOT_ZN_3 VRF TERMINAL UNIT,COIL:COOLING:DX:VARIABLEREFRIGERANTFLOW,ZONE HVAC TERMINAL UNIT VARIABLE REFRIGERANT FLOW 1 COOLING COIL 10,TZ_PERIMETER_BOT_ZN_3 VRF TERMINAL UNIT INLET AIR NODE,TZ_PERIMETER_BOT_ZN_3 VRF TERMINAL UNIT COOLING COIL OUTLET NODE,Air Nodes
 Component Set,87,ZONEHVAC:TERMINALUNIT:VARIABLEREFRIGERANTFLOW,TZ_PERIMETER_BOT_ZN_4 VRF TERMINAL UNIT,COIL:COOLING:DX:VARIABLEREFRIGERANTFLOW,ZONE HVAC TERMINAL UNIT VARIABLE REFRIGERANT FLOW 1 COOLING COIL 11,TZ_PERIMETER_BOT_ZN_4 VRF TERMINAL UNIT INLET AIR NODE,TZ_PERIMETER_BOT_ZN_4 VRF TERMINAL UNIT COOLING COIL OUTLET NODE,Air Nodes
 Component Set,88,ZONEHVAC:TERMINALUNIT:VARIABLEREFRIGERANTFLOW,TZ_PERIMETER_GROUND_ZN_1 VRF TERMINAL UNIT,COIL:COOLING:DX:VARIABLEREFRIGERANTFLOW,ZONE HVAC TERMINAL UNIT VARIABLE REFRIGERANT FLOW 1 COOLING COIL 1,TZ_PERIMETER_GROUND_ZN_1 VRF TERMINAL UNIT INLET AIR NODE,TZ_PERIMETER_GROUND_ZN_1 VRF TERMINAL UNIT COOLING COIL OUTLET NODE,Air Nodes
 Component Set,89,ZONEHVAC:TERMINALUNIT:VARIABLEREFRIGERANTFLOW,TZ_PERIMETER_GROUND_ZN_2 VRF TERMINAL UNIT,COIL:COOLING:DX:VARIABLEREFRIGERANTFLOW,ZONE HVAC TERMINAL UNIT VARIABLE REFRIGERANT FLOW 1 COOLING COIL 2,TZ_PERIMETER_GROUND_ZN_2 VRF TERMINAL UNIT INLET AIR NODE,TZ_PERIMETER_GROUND_ZN_2 VRF TERMINAL UNIT COOLING COIL OUTLET NODE,Air Nodes
 Component Set,90,ZONEHVAC:TERMINALUNIT:VARIABLEREFRIGERANTFLOW,TZ_PERIMETER_GROUND_ZN_3 VRF TERMINAL UNIT,COIL:COOLING:DX:VARIABLEREFRIGERANTFLOW,ZONE HVAC TERMINAL UNIT VARIABLE REFRIGERANT FLOW 1 COOLING COIL 3,TZ_PERIMETER_GROUND_ZN_3 VRF TERMINAL UNIT INLET AIR NODE,TZ_PERIMETER_GROUND_ZN_3 VRF TERMINAL UNIT COOLING COIL OUTLET NODE,Air Nodes
 Component Set,91,ZONEHVAC:TERMINALUNIT:VARIABLEREFRIGERANTFLOW,TZ_PERIMETER_GROUND_ZN_4 VRF TERMINAL UNIT,COIL:COOLING:DX:VARIABLEREFRIGERANTFLOW,ZONE HVAC TERMINAL UNIT VARIABLE REFRIGERANT FLOW 1 COOLING COIL 4,TZ_PERIMETER_GROUND_ZN_4 VRF TERMINAL UNIT INLET AIR NODE,TZ_PERIMETER_GROUND_ZN_4 VRF TERMINAL UNIT COOLING COIL OUTLET NODE,Air Nodes
 Component Set,92,ZONEHVAC:TERMINALUNIT:VARIABLEREFRIGERANTFLOW,TZ_PERIMETER_MID_ZN_1 VRF TERMINAL UNIT,COIL:COOLING:DX:VARIABLEREFRIGERANTFLOW,ZONE HVAC TERMINAL UNIT VARIABLE REFRIGERANT FLOW 1 COOLING COIL 12,TZ_PERIMETER_MID_ZN_1 VRF TERMINAL UNIT INLET AIR NODE,TZ_PERIMETER_MID_ZN_1 VRF TERMINAL UNIT COOLING COIL OUTLET NODE,Air Nodes
 Component Set,93,ZONEHVAC:TERMINALUNIT:VARIABLEREFRIGERANTFLOW,TZ_PERIMETER_MID_ZN_2 VRF TERMINAL UNIT,COIL:COOLING:DX:VARIABLEREFRIGERANTFLOW,ZONE HVAC TERMINAL UNIT VARIABLE REFRIGERANT FLOW 1 COOLING COIL 13,TZ_PERIMETER_MID_ZN_2 VRF TERMINAL UNIT INLET AIR NODE,TZ_PERIMETER_MID_ZN_2 VRF TERMINAL UNIT COOLING COIL OUTLET NODE,Air Nodes
 Component Set,94,ZONEHVAC:TERMINALUNIT:VARIABLEREFRIGERANTFLOW,TZ_PERIMETER_MID_ZN_3 VRF TERMINAL UNIT,COIL:COOLING:DX:VARIABLEREFRIGERANTFLOW,ZONE HVAC TERMINAL UNIT VARIABLE REFRIGERANT FLOW 1 COOLING COIL 14,TZ_PERIMETER_MID_ZN_3 VRF TERMINAL UNIT INLET AIR NODE,TZ_PERIMETER_MID_ZN_3 VRF TERMINAL UNIT COOLING COIL OUTLET NODE,Air Nodes
 Component Set,95,ZONEHVAC:TERMINALUNIT:VARIABLEREFRIGERANTFLOW,TZ_PERIMETER_MID_ZN_4 VRF TERMINAL UNIT,COIL:COOLING:DX:VARIABLEREFRIGERANTFLOW,ZONE HVAC TERMINAL UNIT VARIABLE REFRIGERANT FLOW 1 COOLING COIL 15,TZ_PERIMETER_MID_ZN_4 VRF TERMINAL UNIT INLET AIR NODE,TZ_PERIMETER_MID_ZN_4 VRF TERMINAL UNIT COOLING COIL OUTLET NODE,Air Nodes
 Component Set,96,ZONEHVAC:TERMINALUNIT:VARIABLEREFRIGERANTFLOW,TZ_PERIMETER_TOP_ZN_1 VRF TERMINAL UNIT,COIL:COOLING:DX:VARIABLEREFRIGERANTFLOW,ZONE HVAC TERMINAL UNIT VARIABLE REFRIGERANT FLOW 1 COOLING COIL 16,TZ_PERIMETER_TOP_ZN_1 VRF TERMINAL UNIT INLET AIR NODE,TZ_PERIMETER_TOP_ZN_1 VRF TERMINAL UNIT COOLING COIL OUTLET NODE,Air Nodes
 Component Set,97,ZONEHVAC:TERMINALUNIT:VARIABLEREFRIGERANTFLOW,TZ_PERIMETER_TOP_ZN_2 VRF TERMINAL UNIT,COIL:COOLING:DX:VARIABLEREFRIGERANTFLOW,ZONE HVAC TERMINAL UNIT VARIABLE REFRIGERANT FLOW 1 COOLING COIL 17,TZ_PERIMETER_TOP_ZN_2 VRF TERMINAL UNIT INLET AIR NODE,TZ_PERIMETER_TOP_ZN_2 VRF TERMINAL UNIT COOLING COIL OUTLET NODE,Air Nodes
 Component Set,98,ZONEHVAC:TERMINALUNIT:VARIABLEREFRIGERANTFLOW,TZ_PERIMETER_TOP_ZN_3 VRF TERMINAL UNIT,COIL:COOLING:DX:VARIABLEREFRIGERANTFLOW,ZONE HVAC TERMINAL UNIT VARIABLE REFRIGERANT FLOW 1 COOLING COIL 18,TZ_PERIMETER_TOP_ZN_3 VRF TERMINAL UNIT INLET AIR NODE,TZ_PERIMETER_TOP_ZN_3 VRF TERMINAL UNIT COOLING COIL OUTLET NODE,Air Nodes
 Component Set,99,ZONEHVAC:TERMINALUNIT:VARIABLEREFRIGERANTFLOW,TZ_PERIMETER_TOP_ZN_4 VRF TERMINAL UNIT,COIL:COOLING:DX:VARIABLEREFRIGERANTFLOW,ZONE HVAC TERMINAL UNIT VARIABLE REFRIGERANT FLOW 1 COOLING COIL 19,TZ_PERIMETER_TOP_ZN_4 VRF TERMINAL UNIT INLET AIR NODE,TZ_PERIMETER_TOP_ZN_4 VRF TERMINAL UNIT COOLING COIL OUTLET NODE,Air Nodes
 Component Set,100,ZONEHVAC:TERMINALUNIT:VARIABLEREFRIGERANTFLOW,TZ_CORE_BOTTOM VRF TERMINAL UNIT,COIL:HEATING:DX:VARIABLEREFRIGERANTFLOW,ZONE HVAC TERMINAL UNIT VARIABLE REFRIGERANT FLOW 1 HEATING COIL 5,TZ_CORE_BOTTOM VRF TERMINAL UNIT COOLING COIL OUTLET NODE,TZ_CORE_BOTTOM VRF TERMINAL UNIT HEATING COIL OUTLET NODE,Air Nodes
 Component Set,101,ZONEHVAC:TERMINALUNIT:VARIABLEREFRIGERANTFLOW,TZ_CORE_GROUND VRF TERMINAL UNIT,COIL:HEATING:DX:VARIABLEREFRIGERANTFLOW,ZONE HVAC TERMINAL UNIT VARIABLE REFRIGERANT FLOW 1 HEATING COIL,TZ_CORE_GROUND VRF TERMINAL UNIT COOLING COIL OUTLET NODE,TZ_CORE_GROUND VRF TERMINAL UNIT HEATING COIL OUTLET NODE,Air Nodes
 Component Set,102,ZONEHVAC:TERMINALUNIT:VARIABLEREFRIGERANTFLOW,TZ_CORE_MID VRF TERMINAL UNIT,COIL:HEATING:DX:VARIABLEREFRIGERANTFLOW,ZONE HVAC TERMINAL UNIT VARIABLE REFRIGERANT FLOW 1 HEATING COIL 6,TZ_CORE_MID VRF TERMINAL UNIT COOLING COIL OUTLET NODE,TZ_CORE_MID VRF TERMINAL UNIT HEATING COIL OUTLET NODE,Air Nodes
 Component Set,103,ZONEHVAC:TERMINALUNIT:VARIABLEREFRIGERANTFLOW,TZ_CORE_TOP VRF TERMINAL UNIT,COIL:HEATING:DX:VARIABLEREFRIGERANTFLOW,ZONE HVAC TERMINAL UNIT VARIABLE REFRIGERANT FLOW 1 HEATING COIL 7,TZ_CORE_TOP VRF TERMINAL UNIT COOLING COIL OUTLET NODE,TZ_CORE_TOP VRF TERMINAL UNIT HEATING COIL OUTLET NODE,Air Nodes
 Component Set,104,ZONEHVAC:TERMINALUNIT:VARIABLEREFRIGERANTFLOW,TZ_PERIMETER_BOT_ZN_1 VRF TERMINAL UNIT,COIL:HEATING:DX:VARIABLEREFRIGERANTFLOW,ZONE HVAC TERMINAL UNIT VARIABLE REFRIGERANT FLOW 1 HEATING COIL 8,TZ_PERIMETER_BOT_ZN_1 VRF TERMINAL UNIT COOLING COIL OUTLET NODE,TZ_PERIMETER_BOT_ZN_1 VRF TERMINAL UNIT HEATING COIL OUTLET NODE,Air Nodes
 Component Set,105,ZONEHVAC:TERMINALUNIT:VARIABLEREFRIGERANTFLOW,TZ_PERIMETER_BOT_ZN_2 VRF TERMINAL UNIT,COIL:HEATING:DX:VARIABLEREFRIGERANTFLOW,ZONE HVAC TERMINAL UNIT VARIABLE REFRIGERANT FLOW 1 HEATING COIL 9,TZ_PERIMETER_BOT_ZN_2 VRF TERMINAL UNIT COOLING COIL OUTLET NODE,TZ_PERIMETER_BOT_ZN_2 VRF TERMINAL UNIT HEATING COIL OUTLET NODE,Air Nodes
 Component Set,106,ZONEHVAC:TERMINALUNIT:VARIABLEREFRIGERANTFLOW,TZ_PERIMETER_BOT_ZN_3 VRF TERMINAL UNIT,COIL:HEATING:DX:VARIABLEREFRIGERANTFLOW,ZONE HVAC TERMINAL UNIT VARIABLE REFRIGERANT FLOW 1 HEATING COIL 10,TZ_PERIMETER_BOT_ZN_3 VRF TERMINAL UNIT COOLING COIL OUTLET NODE,TZ_PERIMETER_BOT_ZN_3 VRF TERMINAL UNIT HEATING COIL OUTLET NODE,Air Nodes
 Component Set,107,ZONEHVAC:TERMINALUNIT:VARIABLEREFRIGERANTFLOW,TZ_PERIMETER_BOT_ZN_4 VRF TERMINAL UNIT,COIL:HEATING:DX:VARIABLEREFRIGERANTFLOW,ZONE HVAC TERMINAL UNIT VARIABLE REFRIGERANT FLOW 1 HEATING COIL 11,TZ_PERIMETER_BOT_ZN_4 VRF TERMINAL UNIT COOLING COIL OUTLET NODE,TZ_PERIMETER_BOT_ZN_4 VRF TERMINAL UNIT HEATING COIL OUTLET NODE,Air Nodes
 Component Set,108,ZONEHVAC:TERMINALUNIT:VARIABLEREFRIGERANTFLOW,TZ_PERIMETER_GROUND_ZN_1 VRF TERMINAL UNIT,COIL:HEATING:DX:VARIABLEREFRIGERANTFLOW,ZONE HVAC TERMINAL UNIT VARIABLE REFRIGERANT FLOW 1 HEATING COIL 1,TZ_PERIMETER_GROUND_ZN_1 VRF TERMINAL UNIT COOLING COIL OUTLET NODE,TZ_PERIMETER_GROUND_ZN_1 VRF TERMINAL UNIT HEATING COIL OUTLET NODE,Air Nodes
 Component Set,109,ZONEHVAC:TERMINALUNIT:VARIABLEREFRIGERANTFLOW,TZ_PERIMETER_GROUND_ZN_2 VRF TERMINAL UNIT,COIL:HEATING:DX:VARIABLEREFRIGERANTFLOW,ZONE HVAC TERMINAL UNIT VARIABLE REFRIGERANT FLOW 1 HEATING COIL 2,TZ_PERIMETER_GROUND_ZN_2 VRF TERMINAL UNIT COOLING COIL OUTLET NODE,TZ_PERIMETER_GROUND_ZN_2 VRF TERMINAL UNIT HEATING COIL OUTLET NODE,Air Nodes
 Component Set,110,ZONEHVAC:TERMINALUNIT:VARIABLEREFRIGERANTFLOW,TZ_PERIMETER_GROUND_ZN_3 VRF TERMINAL UNIT,COIL:HEATING:DX:VARIABLEREFRIGERANTFLOW,ZONE HVAC TERMINAL UNIT VARIABLE REFRIGERANT FLOW 1 HEATING COIL 3,TZ_PERIMETER_GROUND_ZN_3 VRF TERMINAL UNIT COOLING COIL OUTLET NODE,TZ_PERIMETER_GROUND_ZN_3 VRF TERMINAL UNIT HEATING COIL OUTLET NODE,Air Nodes
 Component Set,111,ZONEHVAC:TERMINALUNIT:VARIABLEREFRIGERANTFLOW,TZ_PERIMETER_GROUND_ZN_4 VRF TERMINAL UNIT,COIL:HEATING:DX:VARIABLEREFRIGERANTFLOW,ZONE HVAC TERMINAL UNIT VARIABLE REFRIGERANT FLOW 1 HEATING COIL 4,TZ_PERIMETER_GROUND_ZN_4 VRF TERMINAL UNIT COOLING COIL OUTLET NODE,TZ_PERIMETER_GROUND_ZN_4 VRF TERMINAL UNIT HEATING COIL OUTLET NODE,Air Nodes
 Component Set,112,ZONEHVAC:TERMINALUNIT:VARIABLEREFRIGERANTFLOW,TZ_PERIMETER_MID_ZN_1 VRF TERMINAL UNIT,COIL:HEATING:DX:VARIABLEREFRIGERANTFLOW,ZONE HVAC TERMINAL UNIT VARIABLE REFRIGERANT FLOW 1 HEATING COIL 12,TZ_PERIMETER_MID_ZN_1 VRF TERMINAL UNIT COOLING COIL OUTLET NODE,TZ_PERIMETER_MID_ZN_1 VRF TERMINAL UNIT HEATING COIL OUTLET NODE,Air Nodes
 Component Set,113,ZONEHVAC:TERMINALUNIT:VARIABLEREFRIGERANTFLOW,TZ_PERIMETER_MID_ZN_2 VRF TERMINAL UNIT,COIL:HEATING:DX:VARIABLEREFRIGERANTFLOW,ZONE HVAC TERMINAL UNIT VARIABLE REFRIGERANT FLOW 1 HEATING COIL 13,TZ_PERIMETER_MID_ZN_2 VRF TERMINAL UNIT COOLING COIL OUTLET NODE,TZ_PERIMETER_MID_ZN_2 VRF TERMINAL UNIT HEATING COIL OUTLET NODE,Air Nodes
 Component Set,114,ZONEHVAC:TERMINALUNIT:VARIABLEREFRIGERANTFLOW,TZ_PERIMETER_MID_ZN_3 VRF TERMINAL UNIT,COIL:HEATING:DX:VARIABLEREFRIGERANTFLOW,ZONE HVAC TERMINAL UNIT VARIABLE REFRIGERANT FLOW 1 HEATING COIL 14,TZ_PERIMETER_MID_ZN_3 VRF TERMINAL UNIT COOLING COIL OUTLET NODE,TZ_PERIMETER_MID_ZN_3 VRF TERMINAL UNIT HEATING COIL OUTLET NODE,Air Nodes
 Component Set,115,ZONEHVAC:TERMINALUNIT:VARIABLEREFRIGERANTFLOW,TZ_PERIMETER_MID_ZN_4 VRF TERMINAL UNIT,COIL:HEATING:DX:VARIABLEREFRIGERANTFLOW,ZONE HVAC TERMINAL UNIT VARIABLE REFRIGERANT FLOW 1 HEATING COIL 15,TZ_PERIMETER_MID_ZN_4 VRF TERMINAL UNIT COOLING COIL OUTLET NODE,TZ_PERIMETER_MID_ZN_4 VRF TERMINAL UNIT HEATING COIL OUTLET NODE,Air Nodes
 Component Set,116,ZONEHVAC:TERMINALUNIT:VARIABLEREFRIGERANTFLOW,TZ_PERIMETER_TOP_ZN_1 VRF TERMINAL UNIT,COIL:HEATING:DX:VARIABLEREFRIGERANTFLOW,ZONE HVAC TERMINAL UNIT VARIABLE REFRIGERANT FLOW 1 HEATING COIL 16,TZ_PERIMETER_TOP_ZN_1 VRF TERMINAL UNIT COOLING COIL OUTLET NODE,TZ_PERIMETER_TOP_ZN_1 VRF TERMINAL UNIT HEATING COIL OUTLET NODE,Air Nodes
 Component Set,117,ZONEHVAC:TERMINALUNIT:VARIABLEREFRIGERANTFLOW,TZ_PERIMETER_TOP_ZN_2 VRF TERMINAL UNIT,COIL:HEATING:DX:VARIABLEREFRIGERANTFLOW,ZONE HVAC TERMINAL UNIT VARIABLE REFRIGERANT FLOW 1 HEATING COIL 17,TZ_PERIMETER_TOP_ZN_2 VRF TERMINAL UNIT COOLING COIL OUTLET NODE,TZ_PERIMETER_TOP_ZN_2 VRF TERMINAL UNIT HEATING COIL OUTLET NODE,Air Nodes
 Component Set,118,ZONEHVAC:TERMINALUNIT:VARIABLEREFRIGERANTFLOW,TZ_PERIMETER_TOP_ZN_3 VRF TERMINAL UNIT,COIL:HEATING:DX:VARIABLEREFRIGERANTFLOW,ZONE HVAC TERMINAL UNIT VARIABLE REFRIGERANT FLOW 1 HEATING COIL 18,TZ_PERIMETER_TOP_ZN_3 VRF TERMINAL UNIT COOLING COIL OUTLET NODE,TZ_PERIMETER_TOP_ZN_3 VRF TERMINAL UNIT HEATING COIL OUTLET NODE,Air Nodes
 Component Set,119,ZONEHVAC:TERMINALUNIT:VARIABLEREFRIGERANTFLOW,TZ_PERIMETER_TOP_ZN_4 VRF TERMINAL UNIT,COIL:HEATING:DX:VARIABLEREFRIGERANTFLOW,ZONE HVAC TERMINAL UNIT VARIABLE REFRIGERANT FLOW 1 HEATING COIL 19,TZ_PERIMETER_TOP_ZN_4 VRF TERMINAL UNIT COOLING COIL OUTLET NODE,TZ_PERIMETER_TOP_ZN_4 VRF TERMINAL UNIT HEATING COIL OUTLET NODE,Air Nodes
 Component Set,120,AIRLOOPHVAC:OUTDOORAIRSYSTEM,15 ZONE DOAS OA SYSTEM,HEATEXCHANGER:AIRTOAIR:SENSIBLEANDLATENT,15 ZONE DOAS HEAT EXCHANGER,15 ZONE DOAS OUTDOOR AIR NODE,15 ZONE DOAS HEAT EXCHANGER PRIMARY OUTLET AIR NODE,Process Air Nodes
 Component Set,121,AIRLOOPHVAC:OUTDOORAIRSYSTEM,15 ZONE DOAS OA SYSTEM,OUTDOORAIR:MIXER,15 ZONE DOAS OA SYSTEM OUTDOOR AIR MIXER,15 ZONE DOAS HEAT EXCHANGER PRIMARY OUTLET AIR NODE,15 ZONE DOAS MIXED AIR NODE,Air Nodes
 Component Set,122,AIRLOOPHVAC:OUTDOORAIRSYSTEM,5 ZONE DOAS OA SYSTEM,HEATEXCHANGER:AIRTOAIR:SENSIBLEANDLATENT,5 ZONE DOAS HEAT EXCHANGER,5 ZONE DOAS OUTDOOR AIR NODE,5 ZONE DOAS HEAT EXCHANGER PRIMARY OUTLET AIR NODE,Process Air Nodes
 Component Set,123,AIRLOOPHVAC:OUTDOORAIRSYSTEM,5 ZONE DOAS OA SYSTEM,OUTDOORAIR:MIXER,5 ZONE DOAS OA SYSTEM OUTDOOR AIR MIXER,5 ZONE DOAS HEAT EXCHANGER PRIMARY OUTLET AIR NODE,5 ZONE DOAS MIXED AIR NODE,Air Nodes
! ===============================================================
! <# Plant Loops>,<Number of Plant Loops>
 #Plant Loops,1
! <Plant Loop>,<Plant Loop Name>,<Loop Type>,<Inlet Node Name>,<Outlet Node Name>,<Branch List>,<Connector List>
! <Plant Loop Connector>,<Connector Type>,<Connector Name>,<Loop Name>,<Loop Type>,<Number of Inlets/Outlets>
! <Plant Loop Connector Branches>,<Connector Node Count>,<Connector Type>,<Connector Name>,<Inlet Branch>,<Outlet Branch>,<Loop Name>,<Loop Type>
! <Plant Loop Connector Nodes>,<Connector Node Count>,<Connector Type>,<Connector Name>,<Inlet Node>,<Outlet Node>,<Loop Name>,<Loop Type>
! <Plant Loop Supply Connection>,<Plant Loop Name>,<Supply Side Outlet Node Name>,<Demand Side Inlet Node Name>
! <Plant Loop Return Connection>,<Plant Loop Name>,<Demand Side Outlet Node Name>,<Supply Side Inlet Node Name>
 Plant Loop,MAIN SERVICE WATER LOOP,Demand,MAIN SERVICE WATER LOOP DEMAND INLET NODE,MAIN SERVICE WATER LOOP DEMAND OUTLET NODE,MAIN SERVICE WATER LOOP DEMAND BRANCHES,MAIN SERVICE WATER LOOP DEMAND CONNECTOR LIST
   Plant Loop Connector,Splitter,MAIN SERVICE WATER LOOP DEMAND SPLITTER,MAIN SERVICE WATER LOOP,Demand,17
     Plant Loop Connector Branches,1,Splitter,MAIN SERVICE WATER LOOP DEMAND SPLITTER,MAIN SERVICE WATER LOOP DEMAND INLET BRANCH,MAIN SERVICE WATER LOOP DEMAND BRANCH 1,MAIN SERVICE WATER LOOP,Demand
     Plant Loop Connector Nodes,   1,Splitter,MAIN SERVICE WATER LOOP DEMAND SPLITTER,PIPE ADIABATIC 4 OUTLET WATER NODE,PIPE ADIABATIC 2 INLET WATER NODE,MAIN SERVICE WATER LOOP,Demand
     Plant Loop Connector Branches,2,Splitter,MAIN SERVICE WATER LOOP DEMAND SPLITTER,MAIN SERVICE WATER LOOP DEMAND INLET BRANCH,MAIN SERVICE WATER LOOP DEMAND BRANCH 2,MAIN SERVICE WATER LOOP,Demand
     Plant Loop Connector Nodes,   2,Splitter,MAIN SERVICE WATER LOOP DEMAND SPLITTER,PIPE ADIABATIC 4 OUTLET WATER NODE,WATER USE CONNECTIONS 1 INLET WATER NODE,MAIN SERVICE WATER LOOP,Demand
     Plant Loop Connector Branches,3,Splitter,MAIN SERVICE WATER LOOP DEMAND SPLITTER,MAIN SERVICE WATER LOOP DEMAND INLET BRANCH,MAIN SERVICE WATER LOOP DEMAND BRANCH 3,MAIN SERVICE WATER LOOP,Demand
     Plant Loop Connector Nodes,   3,Splitter,MAIN SERVICE WATER LOOP DEMAND SPLITTER,PIPE ADIABATIC 4 OUTLET WATER NODE,WATER USE CONNECTIONS 2 INLET WATER NODE,MAIN SERVICE WATER LOOP,Demand
     Plant Loop Connector Branches,4,Splitter,MAIN SERVICE WATER LOOP DEMAND SPLITTER,MAIN SERVICE WATER LOOP DEMAND INLET BRANCH,MAIN SERVICE WATER LOOP DEMAND BRANCH 4,MAIN SERVICE WATER LOOP,Demand
     Plant Loop Connector Nodes,   4,Splitter,MAIN SERVICE WATER LOOP DEMAND SPLITTER,PIPE ADIABATIC 4 OUTLET WATER NODE,WATER USE CONNECTIONS 3 INLET WATER NODE,MAIN SERVICE WATER LOOP,Demand
     Plant Loop Connector Branches,5,Splitter,MAIN SERVICE WATER LOOP DEMAND SPLITTER,MAIN SERVICE WATER LOOP DEMAND INLET BRANCH,MAIN SERVICE WATER LOOP DEMAND BRANCH 5,MAIN SERVICE WATER LOOP,Demand
     Plant Loop Connector Nodes,   5,Splitter,MAIN SERVICE WATER LOOP DEMAND SPLITTER,PIPE ADIABATIC 4 OUTLET WATER NODE,WATER USE CONNECTIONS 4 INLET WATER NODE,MAIN SERVICE WATER LOOP,Demand
     Plant Loop Connector Branches,6,Splitter,MAIN SERVICE WATER LOOP DEMAND SPLITTER,MAIN SERVICE WATER LOOP DEMAND INLET BRANCH,MAIN SERVICE WATER LOOP DEMAND BRANCH 6,MAIN SERVICE WATER LOOP,Demand
     Plant Loop Connector Nodes,   6,Splitter,MAIN SERVICE WATER LOOP DEMAND SPLITTER,PIPE ADIABATIC 4 OUTLET WATER NODE,WATER USE CONNECTIONS 5 INLET WATER NODE,MAIN SERVICE WATER LOOP,Demand
     Plant Loop Connector Branches,7,Splitter,MAIN SERVICE WATER LOOP DEMAND SPLITTER,MAIN SERVICE WATER LOOP DEMAND INLET BRANCH,MAIN SERVICE WATER LOOP DEMAND BRANCH 7,MAIN SERVICE WATER LOOP,Demand
     Plant Loop Connector Nodes,   7,Splitter,MAIN SERVICE WATER LOOP DEMAND SPLITTER,PIPE ADIABATIC 4 OUTLET WATER NODE,WATER USE CONNECTIONS 6 INLET WATER NODE,MAIN SERVICE WATER LOOP,Demand
     Plant Loop Connector Branches,8,Splitter,MAIN SERVICE WATER LOOP DEMAND SPLITTER,MAIN SERVICE WATER LOOP DEMAND INLET BRANCH,MAIN SERVICE WATER LOOP DEMAND BRANCH 8,MAIN SERVICE WATER LOOP,Demand
     Plant Loop Connector Nodes,   8,Splitter,MAIN SERVICE WATER LOOP DEMAND SPLITTER,PIPE ADIABATIC 4 OUTLET WATER NODE,WATER USE CONNECTIONS 7 INLET WATER NODE,MAIN SERVICE WATER LOOP,Demand
     Plant Loop Connector Branches,9,Splitter,MAIN SERVICE WATER LOOP DEMAND SPLITTER,MAIN SERVICE WATER LOOP DEMAND INLET BRANCH,MAIN SERVICE WATER LOOP DEMAND BRANCH 9,MAIN SERVICE WATER LOOP,Demand
     Plant Loop Connector Nodes,   9,Splitter,MAIN SERVICE WATER LOOP DEMAND SPLITTER,PIPE ADIABATIC 4 OUTLET WATER NODE,WATER USE CONNECTIONS 8 INLET WATER NODE,MAIN SERVICE WATER LOOP,Demand
     Plant Loop Connector Branches,10,Splitter,MAIN SERVICE WATER LOOP DEMAND SPLITTER,MAIN SERVICE WATER LOOP DEMAND INLET BRANCH,MAIN SERVICE WATER LOOP DEMAND BRANCH 10,MAIN SERVICE WATER LOOP,Demand
     Plant Loop Connector Nodes,   10,Splitter,MAIN SERVICE WATER LOOP DEMAND SPLITTER,PIPE ADIABATIC 4 OUTLET WATER NODE,WATER USE CONNECTIONS 9 INLET WATER NODE,MAIN SERVICE WATER LOOP,Demand
     Plant Loop Connector Branches,11,Splitter,MAIN SERVICE WATER LOOP DEMAND SPLITTER,MAIN SERVICE WATER LOOP DEMAND INLET BRANCH,MAIN SERVICE WATER LOOP DEMAND BRANCH 11,MAIN SERVICE WATER LOOP,Demand
     Plant Loop Connector Nodes,   11,Splitter,MAIN SERVICE WATER LOOP DEMAND SPLITTER,PIPE ADIABATIC 4 OUTLET WATER NODE,WATER USE CONNECTIONS 10 INLET WATER NODE,MAIN SERVICE WATER LOOP,Demand
     Plant Loop Connector Branches,12,Splitter,MAIN SERVICE WATER LOOP DEMAND SPLITTER,MAIN SERVICE WATER LOOP DEMAND INLET BRANCH,MAIN SERVICE WATER LOOP DEMAND BRANCH 12,MAIN SERVICE WATER LOOP,Demand
     Plant Loop Connector Nodes,   12,Splitter,MAIN SERVICE WATER LOOP DEMAND SPLITTER,PIPE ADIABATIC 4 OUTLET WATER NODE,WATER USE CONNECTIONS 11 INLET WATER NODE,MAIN SERVICE WATER LOOP,Demand
     Plant Loop Connector Branches,13,Splitter,MAIN SERVICE WATER LOOP DEMAND SPLITTER,MAIN SERVICE WATER LOOP DEMAND INLET BRANCH,MAIN SERVICE WATER LOOP DEMAND BRANCH 13,MAIN SERVICE WATER LOOP,Demand
     Plant Loop Connector Nodes,   13,Splitter,MAIN SERVICE WATER LOOP DEMAND SPLITTER,PIPE ADIABATIC 4 OUTLET WATER NODE,WATER USE CONNECTIONS 12 INLET WATER NODE,MAIN SERVICE WATER LOOP,Demand
     Plant Loop Connector Branches,14,Splitter,MAIN SERVICE WATER LOOP DEMAND SPLITTER,MAIN SERVICE WATER LOOP DEMAND INLET BRANCH,MAIN SERVICE WATER LOOP DEMAND BRANCH 14,MAIN SERVICE WATER LOOP,Demand
     Plant Loop Connector Nodes,   14,Splitter,MAIN SERVICE WATER LOOP DEMAND SPLITTER,PIPE ADIABATIC 4 OUTLET WATER NODE,WATER USE CONNECTIONS 13 INLET WATER NODE,MAIN SERVICE WATER LOOP,Demand
     Plant Loop Connector Branches,15,Splitter,MAIN SERVICE WATER LOOP DEMAND SPLITTER,MAIN SERVICE WATER LOOP DEMAND INLET BRANCH,MAIN SERVICE WATER LOOP DEMAND BRANCH 15,MAIN SERVICE WATER LOOP,Demand
     Plant Loop Connector Nodes,   15,Splitter,MAIN SERVICE WATER LOOP DEMAND SPLITTER,PIPE ADIABATIC 4 OUTLET WATER NODE,WATER USE CONNECTIONS 14 INLET WATER NODE,MAIN SERVICE WATER LOOP,Demand
     Plant Loop Connector Branches,16,Splitter,MAIN SERVICE WATER LOOP DEMAND SPLITTER,MAIN SERVICE WATER LOOP DEMAND INLET BRANCH,MAIN SERVICE WATER LOOP DEMAND BRANCH 16,MAIN SERVICE WATER LOOP,Demand
     Plant Loop Connector Nodes,   16,Splitter,MAIN SERVICE WATER LOOP DEMAND SPLITTER,PIPE ADIABATIC 4 OUTLET WATER NODE,WATER USE CONNECTIONS 15 INLET WATER NODE,MAIN SERVICE WATER LOOP,Demand
     Plant Loop Connector Branches,17,Splitter,MAIN SERVICE WATER LOOP DEMAND SPLITTER,MAIN SERVICE WATER LOOP DEMAND INLET BRANCH,MAIN SERVICE WATER LOOP DEMAND BYPASS BRANCH,MAIN SERVICE WATER LOOP,Demand
     Plant Loop Connector Nodes,   17,Splitter,MAIN SERVICE WATER LOOP DEMAND SPLITTER,PIPE ADIABATIC 4 OUTLET WATER NODE,MAIN SERVICE WATER LOOP DEMAND BYPASS PIPE INLET NODE,MAIN SERVICE WATER LOOP,Demand
   Plant Loop Connector,Mixer,MAIN SERVICE WATER LOOP DEMAND MIXER,MAIN SERVICE WATER LOOP,Demand,17
     Plant Loop Connector Branches,1,Mixer,MAIN SERVICE WATER LOOP DEMAND MIXER,MAIN SERVICE WATER LOOP DEMAND BRANCH 1,MAIN SERVICE WATER LOOP DEMAND OUTLET BRANCH,MAIN SERVICE WATER LOOP,Demand
     Plant Loop Connector Nodes,   1,Mixer,MAIN SERVICE WATER LOOP DEMAND MIXER,PIPE ADIABATIC 2 OUTLET WATER NODE,PIPE ADIABATIC 5 INLET WATER NODE,MAIN SERVICE WATER LOOP,Demand
     Plant Loop Connector Branches,2,Mixer,MAIN SERVICE WATER LOOP DEMAND MIXER,MAIN SERVICE WATER LOOP DEMAND BRANCH 2,MAIN SERVICE WATER LOOP DEMAND OUTLET BRANCH,MAIN SERVICE WATER LOOP,Demand
     Plant Loop Connector Nodes,   2,Mixer,MAIN SERVICE WATER LOOP DEMAND MIXER,WATER USE CONNECTIONS 1 OUTLET WATER NODE,PIPE ADIABATIC 5 INLET WATER NODE,MAIN SERVICE WATER LOOP,Demand
     Plant Loop Connector Branches,3,Mixer,MAIN SERVICE WATER LOOP DEMAND MIXER,MAIN SERVICE WATER LOOP DEMAND BRANCH 3,MAIN SERVICE WATER LOOP DEMAND OUTLET BRANCH,MAIN SERVICE WATER LOOP,Demand
     Plant Loop Connector Nodes,   3,Mixer,MAIN SERVICE WATER LOOP DEMAND MIXER,WATER USE CONNECTIONS 2 OUTLET WATER NODE,PIPE ADIABATIC 5 INLET WATER NODE,MAIN SERVICE WATER LOOP,Demand
     Plant Loop Connector Branches,4,Mixer,MAIN SERVICE WATER LOOP DEMAND MIXER,MAIN SERVICE WATER LOOP DEMAND BRANCH 4,MAIN SERVICE WATER LOOP DEMAND OUTLET BRANCH,MAIN SERVICE WATER LOOP,Demand
[...]
 Non-Parent Node Connection,TZ_PERIMETER_GROUND_ZN_2 VRF TERMINAL UNIT INLET AIR NODE,COIL:COOLING:DX:VARIABLEREFRIGERANTFLOW,ZONE HVAC TERMINAL UNIT VARIABLE REFRIGERANT FLOW 1 COOLING COIL 2,Inlet,1
 Non-Parent Node Connection,TZ_PERIMETER_GROUND_ZN_2 VRF TERMINAL UNIT COOLING COIL OUTLET NODE,COIL:COOLING:DX:VARIABLEREFRIGERANTFLOW,ZONE HVAC TERMINAL UNIT VARIABLE REFRIGERANT FLOW 1 COOLING COIL 2,Outlet,1
 Non-Parent Node Connection,TZ_PERIMETER_GROUND_ZN_3 VRF TERMINAL UNIT INLET AIR NODE,COIL:COOLING:DX:VARIABLEREFRIGERANTFLOW,ZONE HVAC TERMINAL UNIT VARIABLE REFRIGERANT FLOW 1 COOLING COIL 3,Inlet,1
 Non-Parent Node Connection,TZ_PERIMETER_GROUND_ZN_3 VRF TERMINAL UNIT COOLING COIL OUTLET NODE,COIL:COOLING:DX:VARIABLEREFRIGERANTFLOW,ZONE HVAC TERMINAL UNIT VARIABLE REFRIGERANT FLOW 1 COOLING COIL 3,Outlet,1
 Non-Parent Node Connection,TZ_PERIMETER_GROUND_ZN_4 VRF TERMINAL UNIT INLET AIR NODE,COIL:COOLING:DX:VARIABLEREFRIGERANTFLOW,ZONE HVAC TERMINAL UNIT VARIABLE REFRIGERANT FLOW 1 COOLING COIL 4,Inlet,1
 Non-Parent Node Connection,TZ_PERIMETER_GROUND_ZN_4 VRF TERMINAL UNIT COOLING COIL OUTLET NODE,COIL:COOLING:DX:VARIABLEREFRIGERANTFLOW,ZONE HVAC TERMINAL UNIT VARIABLE REFRIGERANT FLOW 1 COOLING COIL 4,Outlet,1
 Non-Parent Node Connection,TZ_PERIMETER_MID_ZN_1 VRF TERMINAL UNIT INLET AIR NODE,COIL:COOLING:DX:VARIABLEREFRIGERANTFLOW,ZONE HVAC TERMINAL UNIT VARIABLE REFRIGERANT FLOW 1 COOLING COIL 12,Inlet,1
 Non-Parent Node Connection,TZ_PERIMETER_MID_ZN_1 VRF TERMINAL UNIT COOLING COIL OUTLET NODE,COIL:COOLING:DX:VARIABLEREFRIGERANTFLOW,ZONE HVAC TERMINAL UNIT VARIABLE REFRIGERANT FLOW 1 COOLING COIL 12,Outlet,1
 Non-Parent Node Connection,TZ_PERIMETER_MID_ZN_2 VRF TERMINAL UNIT INLET AIR NODE,COIL:COOLING:DX:VARIABLEREFRIGERANTFLOW,ZONE HVAC TERMINAL UNIT VARIABLE REFRIGERANT FLOW 1 COOLING COIL 13,Inlet,1
 Non-Parent Node Connection,TZ_PERIMETER_MID_ZN_2 VRF TERMINAL UNIT COOLING COIL OUTLET NODE,COIL:COOLING:DX:VARIABLEREFRIGERANTFLOW,ZONE HVAC TERMINAL UNIT VARIABLE REFRIGERANT FLOW 1 COOLING COIL 13,Outlet,1
 Non-Parent Node Connection,TZ_PERIMETER_MID_ZN_3 VRF TERMINAL UNIT INLET AIR NODE,COIL:COOLING:DX:VARIABLEREFRIGERANTFLOW,ZONE HVAC TERMINAL UNIT VARIABLE REFRIGERANT FLOW 1 COOLING COIL 14,Inlet,1
 Non-Parent Node Connection,TZ_PERIMETER_MID_ZN_3 VRF TERMINAL UNIT COOLING COIL OUTLET NODE,COIL:COOLING:DX:VARIABLEREFRIGERANTFLOW,ZONE HVAC TERMINAL UNIT VARIABLE REFRIGERANT FLOW 1 COOLING COIL 14,Outlet,1
 Non-Parent Node Connection,TZ_PERIMETER_MID_ZN_4 VRF TERMINAL UNIT INLET AIR NODE,COIL:COOLING:DX:VARIABLEREFRIGERANTFLOW,ZONE HVAC TERMINAL UNIT VARIABLE REFRIGERANT FLOW 1 COOLING COIL 15,Inlet,1
 Non-Parent Node Connection,TZ_PERIMETER_MID_ZN_4 VRF TERMINAL UNIT COOLING COIL OUTLET NODE,COIL:COOLING:DX:VARIABLEREFRIGERANTFLOW,ZONE HVAC TERMINAL UNIT VARIABLE REFRIGERANT FLOW 1 COOLING COIL 15,Outlet,1
 Non-Parent Node Connection,TZ_PERIMETER_TOP_ZN_1 VRF TERMINAL UNIT INLET AIR NODE,COIL:COOLING:DX:VARIABLEREFRIGERANTFLOW,ZONE HVAC TERMINAL UNIT VARIABLE REFRIGERANT FLOW 1 COOLING COIL 16,Inlet,1
 Non-Parent Node Connection,TZ_PERIMETER_TOP_ZN_1 VRF TERMINAL UNIT COOLING COIL OUTLET NODE,COIL:COOLING:DX:VARIABLEREFRIGERANTFLOW,ZONE HVAC TERMINAL UNIT VARIABLE REFRIGERANT FLOW 1 COOLING COIL 16,Outlet,1
 Non-Parent Node Connection,TZ_PERIMETER_TOP_ZN_2 VRF TERMINAL UNIT INLET AIR NODE,COIL:COOLING:DX:VARIABLEREFRIGERANTFLOW,ZONE HVAC TERMINAL UNIT VARIABLE REFRIGERANT FLOW 1 COOLING COIL 17,Inlet,1
 Non-Parent Node Connection,TZ_PERIMETER_TOP_ZN_2 VRF TERMINAL UNIT COOLING COIL OUTLET NODE,COIL:COOLING:DX:VARIABLEREFRIGERANTFLOW,ZONE HVAC TERMINAL UNIT VARIABLE REFRIGERANT FLOW 1 COOLING COIL 17,Outlet,1
 Non-Parent Node Connection,TZ_PERIMETER_TOP_ZN_3 VRF TERMINAL UNIT INLET AIR NODE,COIL:COOLING:DX:VARIABLEREFRIGERANTFLOW,ZONE HVAC TERMINAL UNIT VARIABLE REFRIGERANT FLOW 1 COOLING COIL 18,Inlet,1
 Non-Parent Node Connection,TZ_PERIMETER_TOP_ZN_3 VRF TERMINAL UNIT COOLING COIL OUTLET NODE,COIL:COOLING:DX:VARIABLEREFRIGERANTFLOW,ZONE HVAC TERMINAL UNIT VARIABLE REFRIGERANT FLOW 1 COOLING COIL 18,Outlet,1
 Non-Parent Node Connection,TZ_PERIMETER_TOP_ZN_4 VRF TERMINAL UNIT INLET AIR NODE,COIL:COOLING:DX:VARIABLEREFRIGERANTFLOW,ZONE HVAC TERMINAL UNIT VARIABLE REFRIGERANT FLOW 1 COOLING COIL 19,Inlet,1
 Non-Parent Node Connection,TZ_PERIMETER_TOP_ZN_4 VRF TERMINAL UNIT COOLING COIL OUTLET NODE,COIL:COOLING:DX:VARIABLEREFRIGERANTFLOW,ZONE HVAC TERMINAL UNIT VARIABLE REFRIGERANT FLOW 1 COOLING COIL 19,Outlet,1
 Non-Parent Node Connection,TZ_CORE_BOTTOM VRF TERMINAL UNIT COOLING COIL OUTLET NODE,COIL:HEATING:DX:VARIABLEREFRIGERANTFLOW,ZONE HVAC TERMINAL UNIT VARIABLE REFRIGERANT FLOW 1 HEATING COIL 5,Inlet,1
 Non-Parent Node Connection,TZ_CORE_BOTTOM VRF TERMINAL UNIT HEATING COIL OUTLET NODE,COIL:HEATING:DX:VARIABLEREFRIGERANTFLOW,ZONE HVAC TERMINAL UNIT VARIABLE REFRIGERANT FLOW 1 HEATING COIL 5,Outlet,1
 Non-Parent Node Connection,TZ_CORE_GROUND VRF TERMINAL UNIT COOLING COIL OUTLET NODE,COIL:HEATING:DX:VARIABLEREFRIGERANTFLOW,ZONE HVAC TERMINAL UNIT VARIABLE REFRIGERANT FLOW 1 HEATING COIL,Inlet,1
 Non-Parent Node Connection,TZ_CORE_GROUND VRF TERMINAL UNIT HEATING COIL OUTLET NODE,COIL:HEATING:DX:VARIABLEREFRIGERANTFLOW,ZONE HVAC TERMINAL UNIT VARIABLE REFRIGERANT FLOW 1 HEATING COIL,Outlet,1
 Non-Parent Node Connection,TZ_CORE_MID VRF TERMINAL UNIT COOLING COIL OUTLET NODE,COIL:HEATING:DX:VARIABLEREFRIGERANTFLOW,ZONE HVAC TERMINAL UNIT VARIABLE REFRIGERANT FLOW 1 HEATING COIL 6,Inlet,1
 Non-Parent Node Connection,TZ_CORE_MID VRF TERMINAL UNIT HEATING COIL OUTLET NODE,COIL:HEATING:DX:VARIABLEREFRIGERANTFLOW,ZONE HVAC TERMINAL UNIT VARIABLE REFRIGERANT FLOW 1 HEATING COIL 6,Outlet,1
 Non-Parent Node Connection,TZ_CORE_TOP VRF TERMINAL UNIT COOLING COIL OUTLET NODE,COIL:HEATING:DX:VARIABLEREFRIGERANTFLOW,ZONE HVAC TERMINAL UNIT VARIABLE REFRIGERANT FLOW 1 HEATING COIL 7,Inlet,1
 Non-Parent Node Connection,TZ_CORE_TOP VRF TERMINAL UNIT HEATING COIL OUTLET NODE,COIL:HEATING:DX:VARIABLEREFRIGERANTFLOW,ZONE HVAC TERMINAL UNIT VARIABLE REFRIGERANT FLOW 1 HEATING COIL 7,Outlet,1
 Non-Parent Node Connection,TZ_PERIMETER_BOT_ZN_1 VRF TERMINAL UNIT COOLING COIL OUTLET NODE,COIL:HEATING:DX:VARIABLEREFRIGERANTFLOW,ZONE HVAC TERMINAL UNIT VARIABLE REFRIGERANT FLOW 1 HEATING COIL 8,Inlet,1
 Non-Parent Node Connection,TZ_PERIMETER_BOT_ZN_1 VRF TERMINAL UNIT HEATING COIL OUTLET NODE,COIL:HEATING:DX:VARIABLEREFRIGERANTFLOW,ZONE HVAC TERMINAL UNIT VARIABLE REFRIGERANT FLOW 1 HEATING COIL 8,Outlet,1
 Non-Parent Node Connection,TZ_PERIMETER_BOT_ZN_2 VRF TERMINAL UNIT COOLING COIL OUTLET NODE,COIL:HEATING:DX:VARIABLEREFRIGERANTFLOW,ZONE HVAC TERMINAL UNIT VARIABLE REFRIGERANT FLOW 1 HEATING COIL 9,Inlet,1
 Non-Parent Node Connection,TZ_PERIMETER_BOT_ZN_2 VRF TERMINAL UNIT HEATING COIL OUTLET NODE,COIL:HEATING:DX:VARIABLEREFRIGERANTFLOW,ZONE HVAC TERMINAL UNIT VARIABLE REFRIGERANT FLOW 1 HEATING COIL 9,Outlet,1
 Non-Parent Node Connection,TZ_PERIMETER_BOT_ZN_3 VRF TERMINAL UNIT COOLING COIL OUTLET NODE,COIL:HEATING:DX:VARIABLEREFRIGERANTFLOW,ZONE HVAC TERMINAL UNIT VARIABLE REFRIGERANT FLOW 1 HEATING COIL 10,Inlet,1
 Non-Parent Node Connection,TZ_PERIMETER_BOT_ZN_3 VRF TERMINAL UNIT HEATING COIL OUTLET NODE,COIL:HEATING:DX:VARIABLEREFRIGERANTFLOW,ZONE HVAC TERMINAL UNIT VARIABLE REFRIGERANT FLOW 1 HEATING COIL 10,Outlet,1
 Non-Parent Node Connection,TZ_PERIMETER_BOT_ZN_4 VRF TERMINAL UNIT COOLING COIL OUTLET NODE,COIL:HEATING:DX:VARIABLEREFRIGERANTFLOW,ZONE HVAC TERMINAL UNIT VARIABLE REFRIGERANT FLOW 1 HEATING COIL 11,Inlet,1
 Non-Parent Node Connection,TZ_PERIMETER_BOT_ZN_4 VRF TERMINAL UNIT HEATING COIL OUTLET NODE,COIL:HEATING:DX:VARIABLEREFRIGERANTFLOW,ZONE HVAC TERMINAL UNIT VARIABLE REFRIGERANT FLOW 1 HEATING COIL 11,Outlet,1
 Non-Parent Node Connection,TZ_PERIMETER_GROUND_ZN_1 VRF TERMINAL UNIT COOLING COIL OUTLET NODE,COIL:HEATING:DX:VARIABLEREFRIGERANTFLOW,ZONE HVAC TERMINAL UNIT VARIABLE REFRIGERANT FLOW 1 HEATING COIL 1,Inlet,1
 Non-Parent Node Connection,TZ_PERIMETER_GROUND_ZN_1 VRF TERMINAL UNIT HEATING COIL OUTLET NODE,COIL:HEATING:DX:VARIABLEREFRIGERANTFLOW,ZONE HVAC TERMINAL UNIT VARIABLE REFRIGERANT FLOW 1 HEATING COIL 1,Outlet,1
 Non-Parent Node Connection,TZ_PERIMETER_GROUND_ZN_2 VRF TERMINAL UNIT COOLING COIL OUTLET NODE,COIL:HEATING:DX:VARIABLEREFRIGERANTFLOW,ZONE HVAC TERMINAL UNIT VARIABLE REFRIGERANT FLOW 1 HEATING COIL 2,Inlet,1
 Non-Parent Node Connection,TZ_PERIMETER_GROUND_ZN_2 VRF TERMINAL UNIT HEATING COIL OUTLET NODE,COIL:HEATING:DX:VARIABLEREFRIGERANTFLOW,ZONE HVAC TERMINAL UNIT VARIABLE REFRIGERANT FLOW 1 HEATING COIL 2,Outlet,1
 Non-Parent Node Connection,TZ_PERIMETER_GROUND_ZN_3 VRF TERMINAL UNIT COOLING COIL OUTLET NODE,COIL:HEATING:DX:VARIABLEREFRIGERANTFLOW,ZONE HVAC TERMINAL UNIT VARIABLE REFRIGERANT FLOW 1 HEATING COIL 3,Inlet,1
 Non-Parent Node Connection,TZ_PERIMETER_GROUND_ZN_3 VRF TERMINAL UNIT HEATING COIL OUTLET NODE,COIL:HEATING:DX:VARIABLEREFRIGERANTFLOW,ZONE HVAC TERMINAL UNIT VARIABLE REFRIGERANT FLOW 1 HEATING COIL 3,Outlet,1
 Non-Parent Node Connection,TZ_PERIMETER_GROUND_ZN_4 VRF TERMINAL UNIT COOLING COIL OUTLET NODE,COIL:HEATING:DX:VARIABLEREFRIGERANTFLOW,ZONE HVAC TERMINAL UNIT VARIABLE REFRIGERANT FLOW 1 HEATING COIL 4,Inlet,1
 Non-Parent Node Connection,TZ_PERIMETER_GROUND_ZN_4 VRF TERMINAL UNIT HEATING COIL OUTLET NODE,COIL:HEATING:DX:VARIABLEREFRIGERANTFLOW,ZONE HVAC TERMINAL UNIT VARIABLE REFRIGERANT FLOW 1 HEATING COIL 4,Outlet,1
 Non-Parent Node Connection,TZ_PERIMETER_MID_ZN_1 VRF TERMINAL UNIT COOLING COIL OUTLET NODE,COIL:HEATING:DX:VARIABLEREFRIGERANTFLOW,ZONE HVAC TERMINAL UNIT VARIABLE REFRIGERANT FLOW 1 HEATING COIL 12,Inlet,1
 Non-Parent Node Connection,TZ_PERIMETER_MID_ZN_1 VRF TERMINAL UNIT HEATING COIL OUTLET NODE,COIL:HEATING:DX:VARIABLEREFRIGERANTFLOW,ZONE HVAC TERMINAL UNIT VARIABLE REFRIGERANT FLOW 1 HEATING COIL 12,Outlet,1
 Non-Parent Node Connection,TZ_PERIMETER_MID_ZN_2 VRF TERMINAL UNIT COOLING COIL OUTLET NODE,COIL:HEATING:DX:VARIABLEREFRIGERANTFLOW,ZONE HVAC TERMINAL UNIT VARIABLE REFRIGERANT FLOW 1 HEATING COIL 13,Inlet,1
 Non-Parent Node Connection,TZ_PERIMETER_MID_ZN_2 VRF TERMINAL UNIT HEATING COIL OUTLET NODE,COIL:HEATING:DX:VARIABLEREFRIGERANTFLOW,ZONE HVAC TERMINAL UNIT VARIABLE REFRIGERANT FLOW 1 HEATING COIL 13,Outlet,1
 Non-Parent Node Connection,TZ_PERIMETER_MID_ZN_3 VRF TERMINAL UNIT COOLING COIL OUTLET NODE,COIL:HEATING:DX:VARIABLEREFRIGERANTFLOW,ZONE HVAC TERMINAL UNIT VARIABLE REFRIGERANT FLOW 1 HEATING COIL 14,Inlet,1
 Non-Parent Node Connection,TZ_PERIMETER_MID_ZN_3 VRF TERMINAL UNIT HEATING COIL OUTLET NODE,COIL:HEATING:DX:VARIABLEREFRIGERANTFLOW,ZONE HVAC TERMINAL UNIT VARIABLE REFRIGERANT FLOW 1 HEATING COIL 14,Outlet,1
 Non-Parent Node Connection,TZ_PERIMETER_MID_ZN_4 VRF TERMINAL UNIT COOLING COIL OUTLET NODE,COIL:HEATING:DX:VARIABLEREFRIGERANTFLOW,ZONE HVAC TERMINAL UNIT VARIABLE REFRIGERANT FLOW 1 HEATING COIL 15,Inlet,1
 Non-Parent Node Connection,TZ_PERIMETER_MID_ZN_4 VRF TERMINAL UNIT HEATING COIL OUTLET NODE,COIL:HEATING:DX:VARIABLEREFRIGERANTFLOW,ZONE HVAC TERMINAL UNIT VARIABLE REFRIGERANT FLOW 1 HEATING COIL 15,Outlet,1
 Non-Parent Node Connection,TZ_PERIMETER_TOP_ZN_1 VRF TERMINAL UNIT COOLING COIL OUTLET NODE,COIL:HEATING:DX:VARIABLEREFRIGERANTFLOW,ZONE HVAC TERMINAL UNIT VARIABLE REFRIGERANT FLOW 1 HEATING COIL 16,Inlet,1
 Non-Parent Node Connection,TZ_PERIMETER_TOP_ZN_1 VRF TERMINAL UNIT HEATING COIL OUTLET NODE,COIL:HEATING:DX:VARIABLEREFRIGERANTFLOW,ZONE HVAC TERMINAL UNIT VARIABLE REFRIGERANT FLOW 1 HEATING COIL 16,Outlet,1
 Non-Parent Node Connection,TZ_PERIMETER_TOP_ZN_2 VRF TERMINAL UNIT COOLING COIL OUTLET NODE,COIL:HEATING:DX:VARIABLEREFRIGERANTFLOW,ZONE HVAC TERMINAL UNIT VARIABLE REFRIGERANT FLOW 1 HEATING COIL 17,Inlet,1
 Non-Parent Node Connection,TZ_PERIMETER_TOP_ZN_2 VRF TERMINAL UNIT HEATING COIL OUTLET NODE,COIL:HEATING:DX:VARIABLEREFRIGERANTFLOW,ZONE HVAC TERMINAL UNIT VARIABLE REFRIGERANT FLOW 1 HEATING COIL 17,Outlet,1
 Non-Parent Node Connection,TZ_PERIMETER_TOP_ZN_3 VRF TERMINAL UNIT COOLING COIL OUTLET NODE,COIL:HEATING:DX:VARIABLEREFRIGERANTFLOW,ZONE HVAC TERMINAL UNIT VARIABLE REFRIGERANT FLOW 1 HEATING COIL 18,Inlet,1
 Non-Parent Node Connection,TZ_PERIMETER_TOP_ZN_3 VRF TERMINAL UNIT HEATING COIL OUTLET NODE,COIL:HEATING:DX:VARIABLEREFRIGERANTFLOW,ZONE HVAC TERMINAL UNIT VARIABLE REFRIGERANT FLOW 1 HEATING COIL 18,Outlet,1
 Non-Parent Node Connection,TZ_PERIMETER_TOP_ZN_4 VRF TERMINAL UNIT COOLING COIL OUTLET NODE,COIL:HEATING:DX:VARIABLEREFRIGERANTFLOW,ZONE HVAC TERMINAL UNIT VARIABLE REFRIGERANT FLOW 1 HEATING COIL 19,Inlet,1
 Non-Parent Node Connection,TZ_PERIMETER_TOP_ZN_4 VRF TERMINAL UNIT HEATING COIL OUTLET NODE,COIL:HEATING:DX:VARIABLEREFRIGERANTFLOW,ZONE HVAC TERMINAL UNIT VARIABLE REFRIGERANT FLOW 1 HEATING COIL 19,Outlet,1
 Non-Parent Node Connection,15 ZONE DOAS DEMAND OUTLET NODE,AIRLOOPHVAC:ZONEMIXER,AIR LOOP HVAC ZONE MIXER 2,Outlet,1
 Non-Parent Node Connection,TZ_CORE_BOTTOM RETURN AIR NODE,AIRLOOPHVAC:ZONEMIXER,AIR LOOP HVAC ZONE MIXER 2,Inlet,1
 Non-Parent Node Connection,TZ_CORE_MID RETURN AIR NODE,AIRLOOPHVAC:ZONEMIXER,AIR LOOP HVAC ZONE MIXER 2,Inlet,1
 Non-Parent Node Connection,TZ_CORE_TOP RETURN AIR NODE,AIRLOOPHVAC:ZONEMIXER,AIR LOOP HVAC ZONE MIXER 2,Inlet,1
 Non-Parent Node Connection,TZ_PERIMETER_BOT_ZN_1 RETURN AIR NODE,AIRLOOPHVAC:ZONEMIXER,AIR LOOP HVAC ZONE MIXER 2,Inlet,1
 Non-Parent Node Connection,TZ_PERIMETER_BOT_ZN_2 RETURN AIR NODE,AIRLOOPHVAC:ZONEMIXER,AIR LOOP HVAC ZONE MIXER 2,Inlet,1
 Non-Parent Node Connection,TZ_PERIMETER_BOT_ZN_3 RETURN AIR NODE,AIRLOOPHVAC:ZONEMIXER,AIR LOOP HVAC ZONE MIXER 2,Inlet,1
 Non-Parent Node Connection,TZ_PERIMETER_BOT_ZN_4 RETURN AIR NODE,AIRLOOPHVAC:ZONEMIXER,AIR LOOP HVAC ZONE MIXER 2,Inlet,1
 Non-Parent Node Connection,TZ_PERIMETER_MID_ZN_1 RETURN AIR NODE,AIRLOOPHVAC:ZONEMIXER,AIR LOOP HVAC ZONE MIXER 2,Inlet,1
 Non-Parent Node Connection,TZ_PERIMETER_MID_ZN_2 RETURN AIR NODE,AIRLOOPHVAC:ZONEMIXER,AIR LOOP HVAC ZONE MIXER 2,Inlet,1
 Non-Parent Node Connection,TZ_PERIMETER_MID_ZN_3 RETURN AIR NODE,AIRLOOPHVAC:ZONEMIXER,AIR LOOP HVAC ZONE MIXER 2,Inlet,1
 Non-Parent Node Connection,TZ_PERIMETER_MID_ZN_4 RETURN AIR NODE,AIRLOOPHVAC:ZONEMIXER,AIR LOOP HVAC ZONE MIXER 2,Inlet,1
 Non-Parent Node Connection,TZ_PERIMETER_TOP_ZN_1 RETURN AIR NODE,AIRLOOPHVAC:ZONEMIXER,AIR LOOP HVAC ZONE MIXER 2,Inlet,1
 Non-Parent Node Connection,TZ_PERIMETER_TOP_ZN_2 RETURN AIR NODE,AIRLOOPHVAC:ZONEMIXER,AIR LOOP HVAC ZONE MIXER 2,Inlet,1
 Non-Parent Node Connection,TZ_PERIMETER_TOP_ZN_3 RETURN AIR NODE,AIRLOOPHVAC:ZONEMIXER,AIR LOOP HVAC ZONE MIXER 2,Inlet,1
 Non-Parent Node Connection,TZ_PERIMETER_TOP_ZN_4 RETURN AIR NODE,AIRLOOPHVAC:ZONEMIXER,AIR LOOP HVAC ZONE MIXER 2,Inlet,1
 Non-Parent Node Connection,5 ZONE DOAS DEMAND OUTLET NODE,AIRLOOPHVAC:ZONEMIXER,AIR LOOP HVAC ZONE MIXER 1,Outlet,1
 Non-Parent Node Connection,TZ_CORE_GROUND RETURN AIR NODE,AIRLOOPHVAC:ZONEMIXER,AIR LOOP HVAC ZONE MIXER 1,Inlet,1
 Non-Parent Node Connection,TZ_PERIMETER_GROUND_ZN_1 RETURN AIR NODE,AIRLOOPHVAC:ZONEMIXER,AIR LOOP HVAC ZONE MIXER 1,Inlet,1
 Non-Parent Node Connection,TZ_PERIMETER_GROUND_ZN_2 RETURN AIR NODE,AIRLOOPHVAC:ZONEMIXER,AIR LOOP HVAC ZONE MIXER 1,Inlet,1
 Non-Parent Node Connection,TZ_PERIMETER_GROUND_ZN_3 RETURN AIR NODE,AIRLOOPHVAC:ZONEMIXER,AIR LOOP HVAC ZONE MIXER 1,Inlet,1
 Non-Parent Node Connection,TZ_PERIMETER_GROUND_ZN_4 RETURN AIR NODE,AIRLOOPHVAC:ZONEMIXER,AIR LOOP HVAC ZONE MIXER 1,Inlet,1
 Non-Parent Node Connection,15 ZONE DOAS MIXED AIR NODE,OUTDOORAIR:MIXER,15 ZONE DOAS OA SYSTEM OUTDOOR AIR MIXER,Outlet,1
 Non-Parent Node Connection,15 ZONE DOAS HEAT EXCHANGER PRIMARY OUTLET AIR NODE,OUTDOORAIR:MIXER,15 ZONE DOAS OA SYSTEM OUTDOOR AIR MIXER,Inlet,1
 Non-Parent Node Connection,15 ZONE DOAS HEAT EXCHANGER SECONDARY INLET AIR NODE,OUTDOORAIR:MIXER,15 ZONE DOAS OA SYSTEM OUTDOOR AIR MIXER,ReliefAir,1
 Non-Parent Node Connection,DOAS EXHAUST FAN 1 OUTLET AIR NODE,OUTDOORAIR:MIXER,15 ZONE DOAS OA SYSTEM OUTDOOR AIR MIXER,Inlet,1
 Non-Parent Node Connection,5 ZONE DOAS MIXED AIR NODE,OUTDOORAIR:MIXER,5 ZONE DOAS OA SYSTEM OUTDOOR AIR MIXER,Outlet,1
 Non-Parent Node Connection,5 ZONE DOAS HEAT EXCHANGER PRIMARY OUTLET AIR NODE,OUTDOORAIR:MIXER,5 ZONE DOAS OA SYSTEM OUTDOOR AIR MIXER,Inlet,1
 Non-Parent Node Connection,5 ZONE DOAS HEAT EXCHANGER SECONDARY INLET AIR NODE,OUTDOORAIR:MIXER,5 ZONE DOAS OA SYSTEM OUTDOOR AIR MIXER,ReliefAir,1
 Non-Parent Node Connection,DOAS EXHAUST FAN OUTLET AIR NODE,OUTDOORAIR:MIXER,5 ZONE DOAS OA SYSTEM OUTDOOR AIR MIXER,Inlet,1
 Non-Parent Node Connection,15 ZONE DOAS MIXED AIR NODE,CONTROLLER:OUTDOORAIR,15 ZONE DOAS OUTDOOR AIR CONTROLLER,Sensor,1
 Non-Parent Node Connection,15 ZONE DOAS OUTDOOR AIR NODE,CONTROLLER:OUTDOORAIR,15 ZONE DOAS OUTDOOR AIR CONTROLLER,Actuator,1
 Non-Parent Node Connection,15 ZONE DOAS HEAT EXCHANGER SECONDARY INLET AIR NODE,CONTROLLER:OUTDOORAIR,15 ZONE DOAS OUTDOOR AIR CONTROLLER,Actuator,1
 Non-Parent Node Connection,DOAS EXHAUST FAN 1 OUTLET AIR NODE,CONTROLLER:OUTDOORAIR,15 ZONE DOAS OUTDOOR AIR CONTROLLER,Sensor,1
 Non-Parent Node Connection,5 ZONE DOAS MIXED AIR NODE,CONTROLLER:OUTDOORAIR,5 ZONE DOAS OUTDOOR AIR CONTROLLER,Sensor,1
 Non-Parent Node Connection,5 ZONE DOAS OUTDOOR AIR NODE,CONTROLLER:OUTDOORAIR,5 ZONE DOAS OUTDOOR AIR CONTROLLER,Actuator,1
 Non-Parent Node Connection,5 ZONE DOAS HEAT EXCHANGER SECONDARY INLET AIR NODE,CONTROLLER:OUTDOORAIR,5 ZONE DOAS OUTDOOR AIR CONTROLLER,Actuator,1
 Non-Parent Node Connection,DOAS EXHAUST FAN OUTLET AIR NODE,CONTROLLER:OUTDOORAIR,5 ZONE DOAS OUTDOOR AIR CONTROLLER,Sensor,1
 Non-Parent Node Connection,15 ZONE DOAS OUTDOOR AIR NODE,HEATEXCHANGER:AIRTOAIR:SENSIBLEANDLATENT,15 ZONE DOAS HEAT EXCHANGER,Inlet,1
 Non-Parent Node Connection,15 ZONE DOAS HEAT EXCHANGER PRIMARY OUTLET AIR NODE,HEATEXCHANGER:AIRTOAIR:SENSIBLEANDLATENT,15 ZONE DOAS HEAT EXCHANGER,Outlet,1
 Non-Parent Node Connection,15 ZONE DOAS HEAT EXCHANGER SECONDARY INLET AIR NODE,HEATEXCHANGER:AIRTOAIR:SENSIBLEANDLATENT,15 ZONE DOAS HEAT EXCHANGER,Inlet,2
 Non-Parent Node Connection,15 ZONE DOAS RELIEF AIR NODE,HEATEXCHANGER:AIRTOAIR:SENSIBLEANDLATENT,15 ZONE DOAS HEAT EXCHANGER,Outlet,2
 Non-Parent Node Connection,5 ZONE DOAS OUTDOOR AIR NODE,HEATEXCHANGER:AIRTOAIR:SENSIBLEANDLATENT,5 ZONE DOAS HEAT EXCHANGER,Inlet,1
 Non-Parent Node Connection,5 ZONE DOAS HEAT EXCHANGER PRIMARY OUTLET AIR NODE,HEATEXCHANGER:AIRTOAIR:SENSIBLEANDLATENT,5 ZONE DOAS HEAT EXCHANGER,Outlet,1
 Non-Parent Node Connection,5 ZONE DOAS HEAT EXCHANGER SECONDARY INLET AIR NODE,HEATEXCHANGER:AIRTOAIR:SENSIBLEANDLATENT,5 ZONE DOAS HEAT EXCHANGER,Inlet,2
 Non-Parent Node Connection,5 ZONE DOAS RELIEF AIR NODE,HEATEXCHANGER:AIRTOAIR:SENSIBLEANDLATENT,5 ZONE DOAS HEAT EXCHANGER,Outlet,2
 Non-Parent Node Connection,15 ZONE DOAS HTG COIL OUTLET AIR NODE,COIL:HEATING:ELECTRIC,15 ZONE DOAS BACKUP HTG COIL,Inlet,1
 Non-Parent Node Connection,15 ZONE DOAS BACKUP HTG COIL OUTLET AIR NODE,COIL:HEATING:ELECTRIC,15 ZONE DOAS BACKUP HTG COIL,Outlet,1
 Non-Parent Node Connection,15 ZONE DOAS BACKUP HTG COIL OUTLET AIR NODE,COIL:HEATING:ELECTRIC,15 ZONE DOAS BACKUP HTG COIL,Sensor,1
 Non-Parent Node Connection,5 ZONE DOAS HTG COIL OUTLET AIR NODE,COIL:HEATING:ELECTRIC,5 ZONE DOAS BACKUP HTG COIL,Inlet,1
 Non-Parent Node Connection,5 ZONE DOAS BACKUP HTG COIL OUTLET AIR NODE,COIL:HEATING:ELECTRIC,5 ZONE DOAS BACKUP HTG COIL,Outlet,1
 Non-Parent Node Connection,5 ZONE DOAS BACKUP HTG COIL OUTLET AIR NODE,COIL:HEATING:ELECTRIC,5 ZONE DOAS BACKUP HTG COIL,Sensor,1
 Non-Parent Node Connection,MAIN SERVICE WATER LOOP SUPPLY INLET NODE,PUMP:CONSTANTSPEED,SERVICE WATER LOOP PUMP,Inlet,1
 Non-Parent Node Connection,SERVICE WATER LOOP PUMP OUTLET WATER NODE,PUMP:CONSTANTSPEED,SERVICE WATER LOOP PUMP,Outlet,1
