Program Version,EnergyPlus, Version 9.1.0-08d2e308bb, YMD=2019.04.09 23:17
! This file shows details about the branches, nodes, and other
! elements of the flow connections.
! This file is intended for use in "debugging" potential problems
! that may also be detected by the program, but may be more easily
! identified by "eye".
! This file is also intended to support software which draws a
! schematic diagram of the HVAC system.
! ===============================================================
! #Nodes,<Number of Unique Nodes>
 #Nodes,332
! <Node>,<NodeNumber>,<Node Name>,<Node Fluid Type>,<# Times Node Referenced After Definition>
 Node,1,TZ_CORE_BOTTOM AIR TERMINAL OUTLET AIR NODE,Air,3
 Node,2,TZ_CORE_BOTTOM WSHP OUTLET AIR NODE,Air,3
 Node,3,TZ_CORE_BOTTOM WSHP INLET AIR NODE,Air,3
 Node,4,TZ_CORE_BOTTOM RETURN AIR NODE,Air,2
 Node,5,TZ_CORE_GROUND AIR TERMINAL OUTLET AIR NODE,Air,3
 Node,6,TZ_CORE_GROUND WSHP OUTLET AIR NODE,Air,3
 Node,7,TZ_CORE_GROUND WSHP INLET AIR NODE,Air,3
 Node,8,TZ_CORE_GROUND RETURN AIR NODE,Air,2
 Node,9,TZ_CORE_MID AIR TERMINAL OUTLET AIR NODE,Air,3
 Node,10,TZ_CORE_MID WSHP OUTLET AIR NODE,Air,3
 Node,11,TZ_CORE_MID WSHP INLET AIR NODE,Air,3
 Node,12,TZ_CORE_MID RETURN AIR NODE,Air,2
 Node,13,TZ_CORE_TOP AIR TERMINAL OUTLET AIR NODE,Air,3
 Node,14,TZ_CORE_TOP WSHP OUTLET AIR NODE,Air,3
 Node,15,TZ_CORE_TOP WSHP INLET AIR NODE,Air,3
 Node,16,TZ_CORE_TOP RETURN AIR NODE,Air,2
 Node,17,TZ_PERIMETER_BOT_ZN_1 AIR TERMINAL OUTLET AIR NODE,Air,3
 Node,18,TZ_PERIMETER_BOT_ZN_1 WSHP OUTLET AIR NODE,Air,3
 Node,19,TZ_PERIMETER_BOT_ZN_1 WSHP INLET AIR NODE,Air,3
 Node,20,TZ_PERIMETER_BOT_ZN_1 RETURN AIR NODE,Air,2
 Node,21,TZ_PERIMETER_BOT_ZN_2 AIR TERMINAL OUTLET AIR NODE,Air,3
 Node,22,TZ_PERIMETER_BOT_ZN_2 WSHP OUTLET AIR NODE,Air,3
 Node,23,TZ_PERIMETER_BOT_ZN_2 WSHP INLET AIR NODE,Air,3
 Node,24,TZ_PERIMETER_BOT_ZN_2 RETURN AIR NODE,Air,2
 Node,25,TZ_PERIMETER_BOT_ZN_3 AIR TERMINAL OUTLET AIR NODE,Air,3
 Node,26,TZ_PERIMETER_BOT_ZN_3 WSHP OUTLET AIR NODE,Air,3
 Node,27,TZ_PERIMETER_BOT_ZN_3 WSHP INLET AIR NODE,Air,3
 Node,28,TZ_PERIMETER_BOT_ZN_3 RETURN AIR NODE,Air,2
 Node,29,TZ_PERIMETER_BOT_ZN_4 AIR TERMINAL OUTLET AIR NODE,Air,3
 Node,30,TZ_PERIMETER_BOT_ZN_4 WSHP OUTLET AIR NODE,Air,3
 Node,31,TZ_PERIMETER_BOT_ZN_4 WSHP INLET AIR NODE,Air,3
 Node,32,TZ_PERIMETER_BOT_ZN_4 RETURN AIR NODE,Air,2
 Node,33,TZ_PERIMETER_GROUND_ZN_1 AIR TERMINAL OUTLET AIR NODE,Air,3
 Node,34,TZ_PERIMETER_GROUND_ZN_1 WSHP OUTLET AIR NODE,Air,3
 Node,35,TZ_PERIMETER_GROUND_ZN_1 WSHP INLET AIR NODE,Air,3
 Node,36,TZ_PERIMETER_GROUND_ZN_1 RETURN AIR NODE,Air,2
 Node,37,TZ_PERIMETER_GROUND_ZN_2 AIR TERMINAL OUTLET AIR NODE,Air,3
 Node,38,TZ_PERIMETER_GROUND_ZN_2 WSHP OUTLET AIR NODE,Air,3
 Node,39,TZ_PERIMETER_GROUND_ZN_2 WSHP INLET AIR NODE,Air,3
 Node,40,TZ_PERIMETER_GROUND_ZN_2 RETURN AIR NODE,Air,2
 Node,41,TZ_PERIMETER_GROUND_ZN_3 AIR TERMINAL OUTLET AIR NODE,Air,3
 Node,42,TZ_PERIMETER_GROUND_ZN_3 WSHP OUTLET AIR NODE,Air,3
 Node,43,TZ_PERIMETER_GROUND_ZN_3 WSHP INLET AIR NODE,Air,3
 Node,44,TZ_PERIMETER_GROUND_ZN_3 RETURN AIR NODE,Air,2
 Node,45,TZ_PERIMETER_GROUND_ZN_4 AIR TERMINAL OUTLET AIR NODE,Air,3
 Node,46,TZ_PERIMETER_GROUND_ZN_4 WSHP OUTLET AIR NODE,Air,3
 Node,47,TZ_PERIMETER_GROUND_ZN_4 WSHP INLET AIR NODE,Air,3
 Node,48,TZ_PERIMETER_GROUND_ZN_4 RETURN AIR NODE,Air,2
 Node,49,TZ_PERIMETER_MID_ZN_1 AIR TERMINAL OUTLET AIR NODE,Air,3
 Node,50,TZ_PERIMETER_MID_ZN_1 WSHP OUTLET AIR NODE,Air,3
 Node,51,TZ_PERIMETER_MID_ZN_1 WSHP INLET AIR NODE,Air,3
 Node,52,TZ_PERIMETER_MID_ZN_1 RETURN AIR NODE,Air,2
 Node,53,TZ_PERIMETER_MID_ZN_2 AIR TERMINAL OUTLET AIR NODE,Air,3
 Node,54,TZ_PERIMETER_MID_ZN_2 WSHP OUTLET AIR NODE,Air,3
 Node,55,TZ_PERIMETER_MID_ZN_2 WSHP INLET AIR NODE,Air,3
 Node,56,TZ_PERIMETER_MID_ZN_2 RETURN AIR NODE,Air,2
 Node,57,TZ_PERIMETER_MID_ZN_3 AIR TERMINAL OUTLET AIR NODE,Air,3
 Node,58,TZ_PERIMETER_MID_ZN_3 WSHP OUTLET AIR NODE,Air,3
 Node,59,TZ_PERIMETER_MID_ZN_3 WSHP INLET AIR NODE,Air,3
 Node,60,TZ_PERIMETER_MID_ZN_3 RETURN AIR NODE,Air,2
 Node,61,TZ_PERIMETER_MID_ZN_4 AIR TERMINAL OUTLET AIR NODE,Air,3
 Node,62,TZ_PERIMETER_MID_ZN_4 WSHP OUTLET AIR NODE,Air,3
 Node,63,TZ_PERIMETER_MID_ZN_4 WSHP INLET AIR NODE,Air,3
 Node,64,TZ_PERIMETER_MID_ZN_4 RETURN AIR NODE,Air,2
 Node,65,TZ_PERIMETER_TOP_ZN_1 AIR TERMINAL OUTLET AIR NODE,Air,3
 Node,66,TZ_PERIMETER_TOP_ZN_1 WSHP OUTLET AIR NODE,Air,3
 Node,67,TZ_PERIMETER_TOP_ZN_1 WSHP INLET AIR NODE,Air,3
 Node,68,TZ_PERIMETER_TOP_ZN_1 RETURN AIR NODE,Air,2
 Node,69,TZ_PERIMETER_TOP_ZN_2 AIR TERMINAL OUTLET AIR NODE,Air,3
 Node,70,TZ_PERIMETER_TOP_ZN_2 WSHP OUTLET AIR NODE,Air,3
 Node,71,TZ_PERIMETER_TOP_ZN_2 WSHP INLET AIR NODE,Air,3
 Node,72,TZ_PERIMETER_TOP_ZN_2 RETURN AIR NODE,Air,2
 Node,73,TZ_PERIMETER_TOP_ZN_3 AIR TERMINAL OUTLET AIR NODE,Air,3
 Node,74,TZ_PERIMETER_TOP_ZN_3 WSHP OUTLET AIR NODE,Air,3
 Node,75,TZ_PERIMETER_TOP_ZN_3 WSHP INLET AIR NODE,Air,3
 Node,76,TZ_PERIMETER_TOP_ZN_3 RETURN AIR NODE,Air,2
 Node,77,TZ_PERIMETER_TOP_ZN_4 AIR TERMINAL OUTLET AIR NODE,Air,3
 Node,78,TZ_PERIMETER_TOP_ZN_4 WSHP OUTLET AIR NODE,Air,3
 Node,79,TZ_PERIMETER_TOP_ZN_4 WSHP INLET AIR NODE,Air,3
 Node,80,TZ_PERIMETER_TOP_ZN_4 RETURN AIR NODE,Air,2
 Node,81,20 ZONE DOAS SUPPLY OUTLET NODE,Air,16
 Node,82,20 ZONE DOAS DEMAND INLET NODE,Air,3
 Node,83,20 ZONE DOAS SUPPLY INLET NODE,Air,2
 Node,84,DOAS EXHAUST FAN OUTLET AIR NODE,Air,5
 Node,85,20 ZONE DOAS MIXED AIR NODE,Air,6
 Node,86,20 ZONE DOAS 2SPD DX CLG COIL OUTLET AIR NODE,Air,6
 Node,87,20 ZONE DOAS HTG COIL OUTLET AIR NODE,Air,4
 Node,88,20 ZONE DOAS BACKUP HTG COIL OUTLET AIR NODE,Air,11
 Node,89,GROUND HX LOOP SUPPLY INLET NODE,Water,2
 Node,90,GROUND HX LOOP PUMP OUTLET WATER NODE,Water,1
 Node,91,GROUND HX INLET WATER NODE,Water,2
 Node,92,GROUND HX OUTLET WATER NODE,Water,3
 Node,93,GROUND HX LOOP SUPPLY OUTLET PIPE NODE,Water,1
 Node,94,GROUND HX LOOP SUPPLY OUTLET NODE,Water,4
 Node,95,GROUND HX LOOP DEMAND INLET NODE,Water,2
 Node,96,GROUND HX LOOP DEMAND INLET PIPE NODE,Water,1
 Node,97,TZ_PERIMETER_GROUND_ZN_3 WATER-TO-AIR HP HTG COIL INLET WATER NODE,Water,1
 Node,98,TZ_PERIMETER_GROUND_ZN_3 WATER-TO-AIR HP HTG COIL OUTLET WATER NODE,Water,1
 Node,99,TZ_PERIMETER_GROUND_ZN_3 WATER-TO-AIR HP CLG COIL INLET WATER NODE,Water,1
 Node,100,TZ_PERIMETER_GROUND_ZN_3 WATER-TO-AIR HP CLG COIL OUTLET WATER NODE,Water,1
 Node,101,TZ_CORE_GROUND WATER-TO-AIR HP HTG COIL INLET WATER NODE,Water,1
 Node,102,TZ_CORE_GROUND WATER-TO-AIR HP HTG COIL OUTLET WATER NODE,Water,1
 Node,103,TZ_CORE_GROUND WATER-TO-AIR HP CLG COIL INLET WATER NODE,Water,1
 Node,104,TZ_CORE_GROUND WATER-TO-AIR HP CLG COIL OUTLET WATER NODE,Water,1
 Node,105,TZ_PERIMETER_MID_ZN_3 WATER-TO-AIR HP HTG COIL INLET WATER NODE,Water,1
 Node,106,TZ_PERIMETER_MID_ZN_3 WATER-TO-AIR HP HTG COIL OUTLET WATER NODE,Water,1
 Node,107,TZ_PERIMETER_MID_ZN_3 WATER-TO-AIR HP CLG COIL INLET WATER NODE,Water,1
 Node,108,TZ_PERIMETER_MID_ZN_3 WATER-TO-AIR HP CLG COIL OUTLET WATER NODE,Water,1
 Node,109,TZ_PERIMETER_TOP_ZN_4 WATER-TO-AIR HP HTG COIL INLET WATER NODE,Water,1
 Node,110,TZ_PERIMETER_TOP_ZN_4 WATER-TO-AIR HP HTG COIL OUTLET WATER NODE,Water,1
 Node,111,TZ_PERIMETER_TOP_ZN_4 WATER-TO-AIR HP CLG COIL INLET WATER NODE,Water,1
 Node,112,TZ_PERIMETER_TOP_ZN_4 WATER-TO-AIR HP CLG COIL OUTLET WATER NODE,Water,1
 Node,113,TZ_PERIMETER_TOP_ZN_2 WATER-TO-AIR HP HTG COIL INLET WATER NODE,Water,1
 Node,114,TZ_PERIMETER_TOP_ZN_2 WATER-TO-AIR HP HTG COIL OUTLET WATER NODE,Water,1
 Node,115,TZ_PERIMETER_TOP_ZN_2 WATER-TO-AIR HP CLG COIL INLET WATER NODE,Water,1
 Node,116,TZ_PERIMETER_TOP_ZN_2 WATER-TO-AIR HP CLG COIL OUTLET WATER NODE,Water,1
 Node,117,TZ_PERIMETER_TOP_ZN_1 WATER-TO-AIR HP HTG COIL INLET WATER NODE,Water,1
 Node,118,TZ_PERIMETER_TOP_ZN_1 WATER-TO-AIR HP HTG COIL OUTLET WATER NODE,Water,1
 Node,119,TZ_PERIMETER_TOP_ZN_1 WATER-TO-AIR HP CLG COIL INLET WATER NODE,Water,1
 Node,120,TZ_PERIMETER_TOP_ZN_1 WATER-TO-AIR HP CLG COIL OUTLET WATER NODE,Water,1
 Node,121,TZ_PERIMETER_MID_ZN_4 WATER-TO-AIR HP HTG COIL INLET WATER NODE,Water,1
 Node,122,TZ_PERIMETER_MID_ZN_4 WATER-TO-AIR HP HTG COIL OUTLET WATER NODE,Water,1
 Node,123,TZ_PERIMETER_MID_ZN_4 WATER-TO-AIR HP CLG COIL INLET WATER NODE,Water,1
 Node,124,TZ_PERIMETER_MID_ZN_4 WATER-TO-AIR HP CLG COIL OUTLET WATER NODE,Water,1
 Node,125,TZ_PERIMETER_GROUND_ZN_4 WATER-TO-AIR HP HTG COIL INLET WATER NODE,Water,1
 Node,126,TZ_PERIMETER_GROUND_ZN_4 WATER-TO-AIR HP HTG COIL OUTLET WATER NODE,Water,1
 Node,127,TZ_PERIMETER_GROUND_ZN_4 WATER-TO-AIR HP CLG COIL INLET WATER NODE,Water,1
 Node,128,TZ_PERIMETER_GROUND_ZN_4 WATER-TO-AIR HP CLG COIL OUTLET WATER NODE,Water,1
 Node,129,TZ_PERIMETER_MID_ZN_1 WATER-TO-AIR HP HTG COIL INLET WATER NODE,Water,1
 Node,130,TZ_PERIMETER_MID_ZN_1 WATER-TO-AIR HP HTG COIL OUTLET WATER NODE,Water,1
 Node,131,TZ_PERIMETER_MID_ZN_1 WATER-TO-AIR HP CLG COIL INLET WATER NODE,Water,1
 Node,132,TZ_PERIMETER_MID_ZN_1 WATER-TO-AIR HP CLG COIL OUTLET WATER NODE,Water,1
 Node,133,TZ_PERIMETER_BOT_ZN_3 WATER-TO-AIR HP HTG COIL INLET WATER NODE,Water,1
 Node,134,TZ_PERIMETER_BOT_ZN_3 WATER-TO-AIR HP HTG COIL OUTLET WATER NODE,Water,1
 Node,135,TZ_PERIMETER_BOT_ZN_3 WATER-TO-AIR HP CLG COIL INLET WATER NODE,Water,1
 Node,136,TZ_PERIMETER_BOT_ZN_3 WATER-TO-AIR HP CLG COIL OUTLET WATER NODE,Water,1
 Node,137,TZ_PERIMETER_MID_ZN_2 WATER-TO-AIR HP HTG COIL INLET WATER NODE,Water,1
 Node,138,TZ_PERIMETER_MID_ZN_2 WATER-TO-AIR HP HTG COIL OUTLET WATER NODE,Water,1
 Node,139,TZ_PERIMETER_MID_ZN_2 WATER-TO-AIR HP CLG COIL INLET WATER NODE,Water,1
 Node,140,TZ_PERIMETER_MID_ZN_2 WATER-TO-AIR HP CLG COIL OUTLET WATER NODE,Water,1
 Node,141,TZ_PERIMETER_BOT_ZN_4 WATER-TO-AIR HP HTG COIL INLET WATER NODE,Water,1
 Node,142,TZ_PERIMETER_BOT_ZN_4 WATER-TO-AIR HP HTG COIL OUTLET WATER NODE,Water,1
 Node,143,TZ_PERIMETER_BOT_ZN_4 WATER-TO-AIR HP CLG COIL INLET WATER NODE,Water,1
 Node,144,TZ_PERIMETER_BOT_ZN_4 WATER-TO-AIR HP CLG COIL OUTLET WATER NODE,Water,1
 Node,145,TZ_PERIMETER_BOT_ZN_2 WATER-TO-AIR HP HTG COIL INLET WATER NODE,Water,1
 Node,146,TZ_PERIMETER_BOT_ZN_2 WATER-TO-AIR HP HTG COIL OUTLET WATER NODE,Water,1
 Node,147,TZ_PERIMETER_BOT_ZN_2 WATER-TO-AIR HP CLG COIL INLET WATER NODE,Water,1
 Node,148,TZ_PERIMETER_BOT_ZN_2 WATER-TO-AIR HP CLG COIL OUTLET WATER NODE,Water,1
 Node,149,TZ_PERIMETER_GROUND_ZN_2 WATER-TO-AIR HP HTG COIL INLET WATER NODE,Water,1
 Node,150,TZ_PERIMETER_GROUND_ZN_2 WATER-TO-AIR HP HTG COIL OUTLET WATER NODE,Water,1
 Node,151,TZ_PERIMETER_GROUND_ZN_2 WATER-TO-AIR HP CLG COIL INLET WATER NODE,Water,1
 Node,152,TZ_PERIMETER_GROUND_ZN_2 WATER-TO-AIR HP CLG COIL OUTLET WATER NODE,Water,1
 Node,153,TZ_PERIMETER_BOT_ZN_1 WATER-TO-AIR HP HTG COIL INLET WATER NODE,Water,1
 Node,154,TZ_PERIMETER_BOT_ZN_1 WATER-TO-AIR HP HTG COIL OUTLET WATER NODE,Water,1
 Node,155,TZ_PERIMETER_BOT_ZN_1 WATER-TO-AIR HP CLG COIL INLET WATER NODE,Water,1
 Node,156,TZ_PERIMETER_BOT_ZN_1 WATER-TO-AIR HP CLG COIL OUTLET WATER NODE,Water,1
 Node,157,TZ_PERIMETER_GROUND_ZN_1 WATER-TO-AIR HP HTG COIL INLET WATER NODE,Water,1
 Node,158,TZ_PERIMETER_GROUND_ZN_1 WATER-TO-AIR HP HTG COIL OUTLET WATER NODE,Water,1
 Node,159,TZ_PERIMETER_GROUND_ZN_1 WATER-TO-AIR HP CLG COIL INLET WATER NODE,Water,1
 Node,160,TZ_PERIMETER_GROUND_ZN_1 WATER-TO-AIR HP CLG COIL OUTLET WATER NODE,Water,1
 Node,161,TZ_CORE_MID WATER-TO-AIR HP HTG COIL INLET WATER NODE,Water,1
 Node,162,TZ_CORE_MID WATER-TO-AIR HP HTG COIL OUTLET WATER NODE,Water,1
 Node,163,TZ_CORE_MID WATER-TO-AIR HP CLG COIL INLET WATER NODE,Water,1
 Node,164,TZ_CORE_MID WATER-TO-AIR HP CLG COIL OUTLET WATER NODE,Water,1
 Node,165,TZ_PERIMETER_TOP_ZN_3 WATER-TO-AIR HP HTG COIL INLET WATER NODE,Water,1
 Node,166,TZ_PERIMETER_TOP_ZN_3 WATER-TO-AIR HP HTG COIL OUTLET WATER NODE,Water,1
 Node,167,TZ_PERIMETER_TOP_ZN_3 WATER-TO-AIR HP CLG COIL INLET WATER NODE,Water,1
 Node,168,TZ_PERIMETER_TOP_ZN_3 WATER-TO-AIR HP CLG COIL OUTLET WATER NODE,Water,1
 Node,169,TZ_CORE_TOP WATER-TO-AIR HP HTG COIL INLET WATER NODE,Water,1
 Node,170,TZ_CORE_TOP WATER-TO-AIR HP HTG COIL OUTLET WATER NODE,Water,1
 Node,171,TZ_CORE_TOP WATER-TO-AIR HP CLG COIL INLET WATER NODE,Water,1
 Node,172,TZ_CORE_TOP WATER-TO-AIR HP CLG COIL OUTLET WATER NODE,Water,1
 Node,173,TZ_CORE_BOTTOM WATER-TO-AIR HP HTG COIL INLET WATER NODE,Water,1
 Node,174,TZ_CORE_BOTTOM WATER-TO-AIR HP HTG COIL OUTLET WATER NODE,Water,1
 Node,175,TZ_CORE_BOTTOM WATER-TO-AIR HP CLG COIL INLET WATER NODE,Water,1
 Node,176,TZ_CORE_BOTTOM WATER-TO-AIR HP CLG COIL OUTLET WATER NODE,Water,1
 Node,177,GROUND HX LOOP DEMAND BYPASS PIPE INLET NODE,Water,1
 Node,178,GROUND HX LOOP DEMAND BYPASS PIPE OUTLET NODE,Water,1
 Node,179,GROUND HX LOOP DEMAND OUTLET PIPE NODE,Water,1
 Node,180,GROUND HX LOOP DEMAND OUTLET NODE,Water,2
 Node,181,MAIN SERVICE WATER LOOP SUPPLY INLET NODE,Water,2
 Node,182,SERVICE WATER LOOP PUMP OUTLET WATER NODE,Water,1
 Node,183,100GAL NATURAL GAS WATER HEATER - 100KBTU/HR 0.802 THERM EFF SUPPLY INLET WATER NODE,Water,1
 Node,184,100GAL NATURAL GAS WATER HEATER - 100KBTU/HR 0.802 THERM EFF SUPPLY OUTLET WATER NODE,Water,1
 Node,185,PIPE ADIABATIC 1 INLET WATER NODE,Water,1
 Node,186,PIPE ADIABATIC 1 OUTLET WATER NODE,Water,1
 Node,187,PIPE ADIABATIC 3 INLET WATER NODE,Water,1
 Node,188,MAIN SERVICE WATER LOOP SUPPLY OUTLET NODE,Water,4
 Node,189,MAIN SERVICE WATER LOOP DEMAND INLET NODE,Water,2
 Node,190,PIPE ADIABATIC 4 OUTLET WATER NODE,Water,1
 Node,191,PIPE ADIABATIC 2 INLET WATER NODE,Water,1
 Node,192,PIPE ADIABATIC 2 OUTLET WATER NODE,Water,1
 Node,193,WATER USE CONNECTIONS 1 INLET WATER NODE,Water,1
 Node,194,WATER USE CONNECTIONS 1 OUTLET WATER NODE,Water,1
 Node,195,WATER USE CONNECTIONS 2 INLET WATER NODE,Water,1
 Node,196,WATER USE CONNECTIONS 2 OUTLET WATER NODE,Water,1
 Node,197,WATER USE CONNECTIONS 3 INLET WATER NODE,Water,1
 Node,198,WATER USE CONNECTIONS 3 OUTLET WATER NODE,Water,1
 Node,199,WATER USE CONNECTIONS 4 INLET WATER NODE,Water,1
 Node,200,WATER USE CONNECTIONS 4 OUTLET WATER NODE,Water,1
 Node,201,WATER USE CONNECTIONS 5 INLET WATER NODE,Water,1
 Node,202,WATER USE CONNECTIONS 5 OUTLET WATER NODE,Water,1
 Node,203,WATER USE CONNECTIONS 6 INLET WATER NODE,Water,1
 Node,204,WATER USE CONNECTIONS 6 OUTLET WATER NODE,Water,1
 Node,205,WATER USE CONNECTIONS 7 INLET WATER NODE,Water,1
 Node,206,WATER USE CONNECTIONS 7 OUTLET WATER NODE,Water,1
 Node,207,WATER USE CONNECTIONS 8 INLET WATER NODE,Water,1
 Node,208,WATER USE CONNECTIONS 8 OUTLET WATER NODE,Water,1
 Node,209,WATER USE CONNECTIONS 9 INLET WATER NODE,Water,1
 Node,210,WATER USE CONNECTIONS 9 OUTLET WATER NODE,Water,1
 Node,211,WATER USE CONNECTIONS 10 INLET WATER NODE,Water,1
 Node,212,WATER USE CONNECTIONS 10 OUTLET WATER NODE,Water,1
 Node,213,WATER USE CONNECTIONS 11 INLET WATER NODE,Water,1
 Node,214,WATER USE CONNECTIONS 11 OUTLET WATER NODE,Water,1
 Node,215,WATER USE CONNECTIONS 12 INLET WATER NODE,Water,1
 Node,216,WATER USE CONNECTIONS 12 OUTLET WATER NODE,Water,1
 Node,217,WATER USE CONNECTIONS 13 INLET WATER NODE,Water,1
 Node,218,WATER USE CONNECTIONS 13 OUTLET WATER NODE,Water,1
 Node,219,WATER USE CONNECTIONS 14 INLET WATER NODE,Water,1
 Node,220,WATER USE CONNECTIONS 14 OUTLET WATER NODE,Water,1
 Node,221,WATER USE CONNECTIONS 15 INLET WATER NODE,Water,1
 Node,222,WATER USE CONNECTIONS 15 OUTLET WATER NODE,Water,1
 Node,223,MAIN SERVICE WATER LOOP DEMAND BYPASS PIPE INLET NODE,Water,1
 Node,224,MAIN SERVICE WATER LOOP DEMAND BYPASS PIPE OUTLET NODE,Water,1
 Node,225,PIPE ADIABATIC 5 INLET WATER NODE,Water,1
 Node,226,MAIN SERVICE WATER LOOP DEMAND OUTLET NODE,Water,2
 Node,227,TZ_CORE_BOTTOM ZONE AIR NODE,Air,0
 Node,228,TZ_CORE_GROUND ZONE AIR NODE,Air,0
 Node,229,TZ_CORE_MID ZONE AIR NODE,Air,0
 Node,230,TZ_CORE_TOP ZONE AIR NODE,Air,0
 Node,231,TZ_PERIMETER_BOT_ZN_1 ZONE AIR NODE,Air,0
 Node,232,TZ_PERIMETER_BOT_ZN_2 ZONE AIR NODE,Air,0
 Node,233,TZ_PERIMETER_BOT_ZN_3 ZONE AIR NODE,Air,0
 Node,234,TZ_PERIMETER_BOT_ZN_4 ZONE AIR NODE,Air,0
 Node,235,TZ_PERIMETER_GROUND_ZN_1 ZONE AIR NODE,Air,0
 Node,236,TZ_PERIMETER_GROUND_ZN_2 ZONE AIR NODE,Air,0
 Node,237,TZ_PERIMETER_GROUND_ZN_3 ZONE AIR NODE,Air,0
 Node,238,TZ_PERIMETER_GROUND_ZN_4 ZONE AIR NODE,Air,0
 Node,239,TZ_PERIMETER_MID_ZN_1 ZONE AIR NODE,Air,0
 Node,240,TZ_PERIMETER_MID_ZN_2 ZONE AIR NODE,Air,0
 Node,241,TZ_PERIMETER_MID_ZN_3 ZONE AIR NODE,Air,0
 Node,242,TZ_PERIMETER_MID_ZN_4 ZONE AIR NODE,Air,0
 Node,243,TZ_PERIMETER_TOP_ZN_1 ZONE AIR NODE,Air,0
 Node,244,TZ_PERIMETER_TOP_ZN_2 ZONE AIR NODE,Air,0
 Node,245,TZ_PERIMETER_TOP_ZN_3 ZONE AIR NODE,Air,0
 Node,246,TZ_PERIMETER_TOP_ZN_4 ZONE AIR NODE,Air,0
 Node,247,20 ZONE DOAS DEMAND OUTLET NODE,Air,2
 Node,248,20 ZONE DOAS OUTDOOR AIR NODE,Air,2
 Node,249,MODEL OUTDOOR AIR NODE,Air,0
 Node,250,20 ZONE DOAS HEAT EXCHANGER PRIMARY OUTLET AIR NODE,Air,2
 Node,251,TZ_PERIMETER_GROUND_ZN_3 AIR TERMINAL INLET AIR NODE,Air,1
 Node,252,TZ_CORE_GROUND AIR TERMINAL INLET AIR NODE,Air,1
 Node,253,TZ_PERIMETER_MID_ZN_3 AIR TERMINAL INLET AIR NODE,Air,1
 Node,254,TZ_PERIMETER_TOP_ZN_4 AIR TERMINAL INLET AIR NODE,Air,1
 Node,255,TZ_PERIMETER_TOP_ZN_2 AIR TERMINAL INLET AIR NODE,Air,1
 Node,256,TZ_PERIMETER_TOP_ZN_1 AIR TERMINAL INLET AIR NODE,Air,1
 Node,257,TZ_PERIMETER_MID_ZN_4 AIR TERMINAL INLET AIR NODE,Air,1
 Node,258,TZ_PERIMETER_GROUND_ZN_4 AIR TERMINAL INLET AIR NODE,Air,1
 Node,259,TZ_PERIMETER_MID_ZN_1 AIR TERMINAL INLET AIR NODE,Air,1
 Node,260,TZ_PERIMETER_BOT_ZN_3 AIR TERMINAL INLET AIR NODE,Air,1
 Node,261,TZ_PERIMETER_MID_ZN_2 AIR TERMINAL INLET AIR NODE,Air,1
 Node,262,TZ_PERIMETER_BOT_ZN_4 AIR TERMINAL INLET AIR NODE,Air,1
 Node,263,TZ_PERIMETER_BOT_ZN_2 AIR TERMINAL INLET AIR NODE,Air,1
 Node,264,TZ_PERIMETER_GROUND_ZN_2 AIR TERMINAL INLET AIR NODE,Air,1
 Node,265,TZ_PERIMETER_BOT_ZN_1 AIR TERMINAL INLET AIR NODE,Air,1
 Node,266,TZ_PERIMETER_GROUND_ZN_1 AIR TERMINAL INLET AIR NODE,Air,1
 Node,267,TZ_CORE_MID AIR TERMINAL INLET AIR NODE,Air,1
 Node,268,TZ_PERIMETER_TOP_ZN_3 AIR TERMINAL INLET AIR NODE,Air,1
 Node,269,TZ_CORE_TOP AIR TERMINAL INLET AIR NODE,Air,1
 Node,270,TZ_CORE_BOTTOM AIR TERMINAL INLET AIR NODE,Air,1
 Node,271,TZ_CORE_BOTTOM WSHP FAN OUTLET NODE,Air,1
 Node,272,TZ_CORE_GROUND WSHP FAN OUTLET NODE,Air,1
 Node,273,TZ_CORE_MID WSHP FAN OUTLET NODE,Air,1
 Node,274,TZ_CORE_TOP WSHP FAN OUTLET NODE,Air,1
 Node,275,TZ_PERIMETER_BOT_ZN_1 WSHP FAN OUTLET NODE,Air,1
 Node,276,TZ_PERIMETER_BOT_ZN_2 WSHP FAN OUTLET NODE,Air,1
 Node,277,TZ_PERIMETER_BOT_ZN_3 WSHP FAN OUTLET NODE,Air,1
 Node,278,TZ_PERIMETER_BOT_ZN_4 WSHP FAN OUTLET NODE,Air,1
 Node,279,TZ_PERIMETER_GROUND_ZN_1 WSHP FAN OUTLET NODE,Air,1
 Node,280,TZ_PERIMETER_GROUND_ZN_2 WSHP FAN OUTLET NODE,Air,1
 Node,281,TZ_PERIMETER_GROUND_ZN_3 WSHP FAN OUTLET NODE,Air,1
 Node,282,TZ_PERIMETER_GROUND_ZN_4 WSHP FAN OUTLET NODE,Air,1
 Node,283,TZ_PERIMETER_MID_ZN_1 WSHP FAN OUTLET NODE,Air,1
 Node,284,TZ_PERIMETER_MID_ZN_2 WSHP FAN OUTLET NODE,Air,1
 Node,285,TZ_PERIMETER_MID_ZN_3 WSHP FAN OUTLET NODE,Air,1
 Node,286,TZ_PERIMETER_MID_ZN_4 WSHP FAN OUTLET NODE,Air,1
 Node,287,TZ_PERIMETER_TOP_ZN_1 WSHP FAN OUTLET NODE,Air,1
 Node,288,TZ_PERIMETER_TOP_ZN_2 WSHP FAN OUTLET NODE,Air,1
 Node,289,TZ_PERIMETER_TOP_ZN_3 WSHP FAN OUTLET NODE,Air,1
 Node,290,TZ_PERIMETER_TOP_ZN_4 WSHP FAN OUTLET NODE,Air,1
 Node,291,TZ_CORE_BOTTOM WSHP COOLING COIL OUTLET NODE,Air,1
 Node,292,TZ_CORE_GROUND WSHP COOLING COIL OUTLET NODE,Air,1
 Node,293,TZ_CORE_MID WSHP COOLING COIL OUTLET NODE,Air,1
 Node,294,TZ_CORE_TOP WSHP COOLING COIL OUTLET NODE,Air,1
 Node,295,TZ_PERIMETER_BOT_ZN_1 WSHP COOLING COIL OUTLET NODE,Air,1
 Node,296,TZ_PERIMETER_BOT_ZN_2 WSHP COOLING COIL OUTLET NODE,Air,1
 Node,297,TZ_PERIMETER_BOT_ZN_3 WSHP COOLING COIL OUTLET NODE,Air,1
 Node,298,TZ_PERIMETER_BOT_ZN_4 WSHP COOLING COIL OUTLET NODE,Air,1
 Node,299,TZ_PERIMETER_GROUND_ZN_1 WSHP COOLING COIL OUTLET NODE,Air,1
 Node,300,TZ_PERIMETER_GROUND_ZN_2 WSHP COOLING COIL OUTLET NODE,Air,1
 Node,301,TZ_PERIMETER_GROUND_ZN_3 WSHP COOLING COIL OUTLET NODE,Air,1
 Node,302,TZ_PERIMETER_GROUND_ZN_4 WSHP COOLING COIL OUTLET NODE,Air,1
 Node,303,TZ_PERIMETER_MID_ZN_1 WSHP COOLING COIL OUTLET NODE,Air,1
 Node,304,TZ_PERIMETER_MID_ZN_2 WSHP COOLING COIL OUTLET NODE,Air,1
 Node,305,TZ_PERIMETER_MID_ZN_3 WSHP COOLING COIL OUTLET NODE,Air,1
 Node,306,TZ_PERIMETER_MID_ZN_4 WSHP COOLING COIL OUTLET NODE,Air,1
 Node,307,TZ_PERIMETER_TOP_ZN_1 WSHP COOLING COIL OUTLET NODE,Air,1
 Node,308,TZ_PERIMETER_TOP_ZN_2 WSHP COOLING COIL OUTLET NODE,Air,1
 Node,309,TZ_PERIMETER_TOP_ZN_3 WSHP COOLING COIL OUTLET NODE,Air,1
 Node,310,TZ_PERIMETER_TOP_ZN_4 WSHP COOLING COIL OUTLET NODE,Air,1
 Node,311,TZ_CORE_BOTTOM WSHP HEATING COIL OUTLET NODE,Air,1
 Node,312,TZ_CORE_GROUND WSHP HEATING COIL OUTLET NODE,Air,1
 Node,313,TZ_CORE_MID WSHP HEATING COIL OUTLET NODE,Air,1
 Node,314,TZ_CORE_TOP WSHP HEATING COIL OUTLET NODE,Air,1
 Node,315,TZ_PERIMETER_BOT_ZN_1 WSHP HEATING COIL OUTLET NODE,Air,1
 Node,316,TZ_PERIMETER_BOT_ZN_2 WSHP HEATING COIL OUTLET NODE,Air,1
 Node,317,TZ_PERIMETER_BOT_ZN_3 WSHP HEATING COIL OUTLET NODE,Air,1
 Node,318,TZ_PERIMETER_BOT_ZN_4 WSHP HEATING COIL OUTLET NODE,Air,1
 Node,319,TZ_PERIMETER_GROUND_ZN_1 WSHP HEATING COIL OUTLET NODE,Air,1
 Node,320,TZ_PERIMETER_GROUND_ZN_2 WSHP HEATING COIL OUTLET NODE,Air,1
 Node,321,TZ_PERIMETER_GROUND_ZN_3 WSHP HEATING COIL OUTLET NODE,Air,1
 Node,322,TZ_PERIMETER_GROUND_ZN_4 WSHP HEATING COIL OUTLET NODE,Air,1
 Node,323,TZ_PERIMETER_MID_ZN_1 WSHP HEATING COIL OUTLET NODE,Air,1
 Node,324,TZ_PERIMETER_MID_ZN_2 WSHP HEATING COIL OUTLET NODE,Air,1
 Node,325,TZ_PERIMETER_MID_ZN_3 WSHP HEATING COIL OUTLET NODE,Air,1
 Node,326,TZ_PERIMETER_MID_ZN_4 WSHP HEATING COIL OUTLET NODE,Air,1
 Node,327,TZ_PERIMETER_TOP_ZN_1 WSHP HEATING COIL OUTLET NODE,Air,1
 Node,328,TZ_PERIMETER_TOP_ZN_2 WSHP HEATING COIL OUTLET NODE,Air,1
 Node,329,TZ_PERIMETER_TOP_ZN_3 WSHP HEATING COIL OUTLET NODE,Air,1
 Node,330,TZ_PERIMETER_TOP_ZN_4 WSHP HEATING COIL OUTLET NODE,Air,1
 Node,331,20 ZONE DOAS HEAT EXCHANGER SECONDARY INLET AIR NODE,Air,2
 Node,332,20 ZONE DOAS RELIEF AIR NODE,Air,0
! ===============================================================
! Suspicious nodes have 0 references.  It is normal for some nodes, however.
! Listing nodes with 0 references (culled from previous list):
! <Suspicious Node>,<NodeNumber>,<Node Name>,<Node Fluid Type>,<# Times Node Referenced After Definition>
 Suspicious Node,227,TZ_CORE_BOTTOM ZONE AIR NODE,Air,0
 Suspicious Node,228,TZ_CORE_GROUND ZONE AIR NODE,Air,0
 Suspicious Node,229,TZ_CORE_MID ZONE AIR NODE,Air,0
 Suspicious Node,230,TZ_CORE_TOP ZONE AIR NODE,Air,0
 Suspicious Node,231,TZ_PERIMETER_BOT_ZN_1 ZONE AIR NODE,Air,0
 Suspicious Node,232,TZ_PERIMETER_BOT_ZN_2 ZONE AIR NODE,Air,0
 Suspicious Node,233,TZ_PERIMETER_BOT_ZN_3 ZONE AIR NODE,Air,0
 Suspicious Node,234,TZ_PERIMETER_BOT_ZN_4 ZONE AIR NODE,Air,0
 Suspicious Node,235,TZ_PERIMETER_GROUND_ZN_1 ZONE AIR NODE,Air,0
 Suspicious Node,236,TZ_PERIMETER_GROUND_ZN_2 ZONE AIR NODE,Air,0
 Suspicious Node,237,TZ_PERIMETER_GROUND_ZN_3 ZONE AIR NODE,Air,0
 Suspicious Node,238,TZ_PERIMETER_GROUND_ZN_4 ZONE AIR NODE,Air,0
 Suspicious Node,239,TZ_PERIMETER_MID_ZN_1 ZONE AIR NODE,Air,0
 Suspicious Node,240,TZ_PERIMETER_MID_ZN_2 ZONE AIR NODE,Air,0
 Suspicious Node,241,TZ_PERIMETER_MID_ZN_3 ZONE AIR NODE,Air,0
 Suspicious Node,242,TZ_PERIMETER_MID_ZN_4 ZONE AIR NODE,Air,0
 Suspicious Node,243,TZ_PERIMETER_TOP_ZN_1 ZONE AIR NODE,Air,0
 Suspicious Node,244,TZ_PERIMETER_TOP_ZN_2 ZONE AIR NODE,Air,0
 Suspicious Node,245,TZ_PERIMETER_TOP_ZN_3 ZONE AIR NODE,Air,0
 Suspicious Node,246,TZ_PERIMETER_TOP_ZN_4 ZONE AIR NODE,Air,0
 Suspicious Node,249,MODEL OUTDOOR AIR NODE,Air,0
 Suspicious Node,332,20 ZONE DOAS RELIEF AIR NODE,Air,0
! ===============================================================
! <#Branch Lists>,<Number of Branch Lists>
 #Branch Lists,5
! <Branch List>,<Branch List Count>,<Branch List Name>,<Loop Name>,<Loop Type>,<Number of Branches>
! <Branch>,<Branch Count>,<Branch Name>,<Loop Name>,<Loop Type>,<Branch Inlet Node Name>,<Branch Outlet Node Name>
 Branch List,1,20 ZONE DOAS SUPPLY BRANCHES,20 ZONE DOAS,Air,1
   Branch,1,20 ZONE DOAS MAIN BRANCH,20 ZONE DOAS,Air,20 ZONE DOAS SUPPLY INLET NODE,20 ZONE DOAS SUPPLY OUTLET NODE
 Branch List,2,GROUND HX LOOP SUPPLY BRANCHES,GROUND HX LOOP,Plant Supply,3
   Branch,1,GROUND HX LOOP SUPPLY INLET BRANCH,GROUND HX LOOP,Plant Supply,GROUND HX LOOP SUPPLY INLET NODE,GROUND HX LOOP PUMP OUTLET WATER NODE
   Branch,2,GROUND HX LOOP SUPPLY BRANCH 1,GROUND HX LOOP,Plant Supply,GROUND HX INLET WATER NODE,GROUND HX OUTLET WATER NODE
   Branch,3,GROUND HX LOOP SUPPLY OUTLET BRANCH,GROUND HX LOOP,Plant Supply,GROUND HX LOOP SUPPLY OUTLET PIPE NODE,GROUND HX LOOP SUPPLY OUTLET NODE
 Branch List,3,GROUND HX LOOP DEMAND BRANCHES,GROUND HX LOOP,Plant Demand,43
   Branch,1,GROUND HX LOOP DEMAND INLET BRANCH,GROUND HX LOOP,Plant Demand,GROUND HX LOOP DEMAND INLET NODE,GROUND HX LOOP DEMAND INLET PIPE NODE
   Branch,2,GROUND HX LOOP DEMAND BRANCH 1,GROUND HX LOOP,Plant Demand,TZ_PERIMETER_GROUND_ZN_3 WATER-TO-AIR HP HTG COIL INLET WATER NODE,TZ_PERIMETER_GROUND_ZN_3 WATER-TO-AIR HP HTG COIL OUTLET WATER NODE
   Branch,3,GROUND HX LOOP DEMAND BRANCH 2,GROUND HX LOOP,Plant Demand,TZ_PERIMETER_GROUND_ZN_3 WATER-TO-AIR HP CLG COIL INLET WATER NODE,TZ_PERIMETER_GROUND_ZN_3 WATER-TO-AIR HP CLG COIL OUTLET WATER NODE
   Branch,4,GROUND HX LOOP DEMAND BRANCH 3,GROUND HX LOOP,Plant Demand,TZ_CORE_GROUND WATER-TO-AIR HP HTG COIL INLET WATER NODE,TZ_CORE_GROUND WATER-TO-AIR HP HTG COIL OUTLET WATER NODE
   Branch,5,GROUND HX LOOP DEMAND BRANCH 4,GROUND HX LOOP,Plant Demand,TZ_CORE_GROUND WATER-TO-AIR HP CLG COIL INLET WATER NODE,TZ_CORE_GROUND WATER-TO-AIR HP CLG COIL OUTLET WATER NODE
   Branch,6,GROUND HX LOOP DEMAND BRANCH 5,GROUND HX LOOP,Plant Demand,TZ_PERIMETER_MID_ZN_3 WATER-TO-AIR HP HTG COIL INLET WATER NODE,TZ_PERIMETER_MID_ZN_3 WATER-TO-AIR HP HTG COIL OUTLET WATER NODE
   Branch,7,GROUND HX LOOP DEMAND BRANCH 6,GROUND HX LOOP,Plant Demand,TZ_PERIMETER_MID_ZN_3 WATER-TO-AIR HP CLG COIL INLET WATER NODE,TZ_PERIMETER_MID_ZN_3 WATER-TO-AIR HP CLG COIL OUTLET WATER NODE
   Branch,8,GROUND HX LOOP DEMAND BRANCH 7,GROUND HX LOOP,Plant Demand,TZ_PERIMETER_TOP_ZN_4 WATER-TO-AIR HP HTG COIL INLET WATER NODE,TZ_PERIMETER_TOP_ZN_4 WATER-TO-AIR HP HTG COIL OUTLET WATER NODE
   Branch,9,GROUND HX LOOP DEMAND BRANCH 8,GROUND HX LOOP,Plant Demand,TZ_PERIMETER_TOP_ZN_4 WATER-TO-AIR HP CLG COIL INLET WATER NODE,TZ_PERIMETER_TOP_ZN_4 WATER-TO-AIR HP CLG COIL OUTLET WATER NODE
   Branch,10,GROUND HX LOOP DEMAND BRANCH 9,GROUND HX LOOP,Plant Demand,TZ_PERIMETER_TOP_ZN_2 WATER-TO-AIR HP HTG COIL INLET WATER NODE,TZ_PERIMETER_TOP_ZN_2 WATER-TO-AIR HP HTG COIL OUTLET WATER NODE
   Branch,11,GROUND HX LOOP DEMAND BRANCH 10,GROUND HX LOOP,Plant Demand,TZ_PERIMETER_TOP_ZN_2 WATER-TO-AIR HP CLG COIL INLET WATER NODE,TZ_PERIMETER_TOP_ZN_2 WATER-TO-AIR HP CLG COIL OUTLET WATER NODE
   Branch,12,GROUND HX LOOP DEMAND BRANCH 11,GROUND HX LOOP,Plant Demand,TZ_PERIMETER_TOP_ZN_1 WATER-TO-AIR HP HTG COIL INLET WATER NODE,TZ_PERIMETER_TOP_ZN_1 WATER-TO-AIR HP HTG COIL OUTLET WATER NODE
   Branch,13,GROUND HX LOOP DEMAND BRANCH 12,GROUND HX LOOP,Plant Demand,TZ_PERIMETER_TOP_ZN_1 WATER-TO-AIR HP CLG COIL INLET WATER NODE,TZ_PERIMETER_TOP_ZN_1 WATER-TO-AIR HP CLG COIL OUTLET WATER NODE
   Branch,14,GROUND HX LOOP DEMAND BRANCH 13,GROUND HX LOOP,Plant Demand,TZ_PERIMETER_MID_ZN_4 WATER-TO-AIR HP HTG COIL INLET WATER NODE,TZ_PERIMETER_MID_ZN_4 WATER-TO-AIR HP HTG COIL OUTLET WATER NODE
   Branch,15,GROUND HX LOOP DEMAND BRANCH 14,GROUND HX LOOP,Plant Demand,TZ_PERIMETER_MID_ZN_4 WATER-TO-AIR HP CLG COIL INLET WATER NODE,TZ_PERIMETER_MID_ZN_4 WATER-TO-AIR HP CLG COIL OUTLET WATER NODE
   Branch,16,GROUND HX LOOP DEMAND BRANCH 15,GROUND HX LOOP,Plant Demand,TZ_PERIMETER_GROUND_ZN_4 WATER-TO-AIR HP HTG COIL INLET WATER NODE,TZ_PERIMETER_GROUND_ZN_4 WATER-TO-AIR HP HTG COIL OUTLET WATER NODE
   Branch,17,GROUND HX LOOP DEMAND BRANCH 16,GROUND HX LOOP,Plant Demand,TZ_PERIMETER_GROUND_ZN_4 WATER-TO-AIR HP CLG COIL INLET WATER NODE,TZ_PERIMETER_GROUND_ZN_4 WATER-TO-AIR HP CLG COIL OUTLET WATER NODE
   Branch,18,GROUND HX LOOP DEMAND BRANCH 17,GROUND HX LOOP,Plant Demand,TZ_PERIMETER_MID_ZN_1 WATER-TO-AIR HP HTG COIL INLET WATER NODE,TZ_PERIMETER_MID_ZN_1 WATER-TO-AIR HP HTG COIL OUTLET WATER NODE
   Branch,19,GROUND HX LOOP DEMAND BRANCH 18,GROUND HX LOOP,Plant Demand,TZ_PERIMETER_MID_ZN_1 WATER-TO-AIR HP CLG COIL INLET WATER NODE,TZ_PERIMETER_MID_ZN_1 WATER-TO-AIR HP CLG COIL OUTLET WATER NODE
   Branch,20,GROUND HX LOOP DEMAND BRANCH 19,GROUND HX LOOP,Plant Demand,TZ_PERIMETER_BOT_ZN_3 WATER-TO-AIR HP HTG COIL INLET WATER NODE,TZ_PERIMETER_BOT_ZN_3 WATER-TO-AIR HP HTG COIL OUTLET WATER NODE
   Branch,21,GROUND HX LOOP DEMAND BRANCH 20,GROUND HX LOOP,Plant Demand,TZ_PERIMETER_BOT_ZN_3 WATER-TO-AIR HP CLG COIL INLET WATER NODE,TZ_PERIMETER_BOT_ZN_3 WATER-TO-AIR HP CLG COIL OUTLET WATER NODE
   Branch,22,GROUND HX LOOP DEMAND BRANCH 21,GROUND HX LOOP,Plant Demand,TZ_PERIMETER_MID_ZN_2 WATER-TO-AIR HP HTG COIL INLET WATER NODE,TZ_PERIMETER_MID_ZN_2 WATER-TO-AIR HP HTG COIL OUTLET WATER NODE
   Branch,23,GROUND HX LOOP DEMAND BRANCH 22,GROUND HX LOOP,Plant Demand,TZ_PERIMETER_MID_ZN_2 WATER-TO-AIR HP CLG COIL INLET WATER NODE,TZ_PERIMETER_MID_ZN_2 WATER-TO-AIR HP CLG COIL OUTLET WATER NODE
   Branch,24,GROUND HX LOOP DEMAND BRANCH 23,GROUND HX LOOP,Plant Demand,TZ_PERIMETER_BOT_ZN_4 WATER-TO-AIR HP HTG COIL INLET WATER NODE,TZ_PERIMETER_BOT_ZN_4 WATER-TO-AIR HP HTG COIL OUTLET WATER NODE
   Branch,25,GROUND HX LOOP DEMAND BRANCH 24,GROUND HX LOOP,Plant Demand,TZ_PERIMETER_BOT_ZN_4 WATER-TO-AIR HP CLG COIL INLET WATER NODE,TZ_PERIMETER_BOT_ZN_4 WATER-TO-AIR HP CLG COIL OUTLET WATER NODE
   Branch,26,GROUND HX LOOP DEMAND BRANCH 25,GROUND HX LOOP,Plant Demand,TZ_PERIMETER_BOT_ZN_2 WATER-TO-AIR HP HTG COIL INLET WATER NODE,TZ_PERIMETER_BOT_ZN_2 WATER-TO-AIR HP HTG COIL OUTLET WATER NODE
   Branch,27,GROUND HX LOOP DEMAND BRANCH 26,GROUND HX LOOP,Plant Demand,TZ_PERIMETER_BOT_ZN_2 WATER-TO-AIR HP CLG COIL INLET WATER NODE,TZ_PERIMETER_BOT_ZN_2 WATER-TO-AIR HP CLG COIL OUTLET WATER NODE
   Branch,28,GROUND HX LOOP DEMAND BRANCH 27,GROUND HX LOOP,Plant Demand,TZ_PERIMETER_GROUND_ZN_2 WATER-TO-AIR HP HTG COIL INLET WATER NODE,TZ_PERIMETER_GROUND_ZN_2 WATER-TO-AIR HP HTG COIL OUTLET WATER NODE
   Branch,29,GROUND HX LOOP DEMAND BRANCH 28,GROUND HX LOOP,Plant Demand,TZ_PERIMETER_GROUND_ZN_2 WATER-TO-AIR HP CLG COIL INLET WATER NODE,TZ_PERIMETER_GROUND_ZN_2 WATER-TO-AIR HP CLG COIL OUTLET WATER NODE
   Branch,30,GROUND HX LOOP DEMAND BRANCH 29,GROUND HX LOOP,Plant Demand,TZ_PERIMETER_BOT_ZN_1 WATER-TO-AIR HP HTG COIL INLET WATER NODE,TZ_PERIMETER_BOT_ZN_1 WATER-TO-AIR HP HTG COIL OUTLET WATER NODE
   Branch,31,GROUND HX LOOP DEMAND BRANCH 30,GROUND HX LOOP,Plant Demand,TZ_PERIMETER_BOT_ZN_1 WATER-TO-AIR HP CLG COIL INLET WATER NODE,TZ_PERIMETER_BOT_ZN_1 WATER-TO-AIR HP CLG COIL OUTLET WATER NODE
   Branch,32,GROUND HX LOOP DEMAND BRANCH 31,GROUND HX LOOP,Plant Demand,TZ_PERIMETER_GROUND_ZN_1 WATER-TO-AIR HP HTG COIL INLET WATER NODE,TZ_PERIMETER_GROUND_ZN_1 WATER-TO-AIR HP HTG COIL OUTLET WATER NODE
   Branch,33,GROUND HX LOOP DEMAND BRANCH 32,GROUND HX LOOP,Plant Demand,TZ_PERIMETER_GROUND_ZN_1 WATER-TO-AIR HP CLG COIL INLET WATER NODE,TZ_PERIMETER_GROUND_ZN_1 WATER-TO-AIR HP CLG COIL OUTLET WATER NODE
   Branch,34,GROUND HX LOOP DEMAND BRANCH 33,GROUND HX LOOP,Plant Demand,TZ_CORE_MID WATER-TO-AIR HP HTG COIL INLET WATER NODE,TZ_CORE_MID WATER-TO-AIR HP HTG COIL OUTLET WATER NODE
   Branch,35,GROUND HX LOOP DEMAND BRANCH 34,GROUND HX LOOP,Plant Demand,TZ_CORE_MID WATER-TO-AIR HP CLG COIL INLET WATER NODE,TZ_CORE_MID WATER-TO-AIR HP CLG COIL OUTLET WATER NODE
   Branch,36,GROUND HX LOOP DEMAND BRANCH 35,GROUND HX LOOP,Plant Demand,TZ_PERIMETER_TOP_ZN_3 WATER-TO-AIR HP HTG COIL INLET WATER NODE,TZ_PERIMETER_TOP_ZN_3 WATER-TO-AIR HP HTG COIL OUTLET WATER NODE
   Branch,37,GROUND HX LOOP DEMAND BRANCH 36,GROUND HX LOOP,Plant Demand,TZ_PERIMETER_TOP_ZN_3 WATER-TO-AIR HP CLG COIL INLET WATER NODE,TZ_PERIMETER_TOP_ZN_3 WATER-TO-AIR HP CLG COIL OUTLET WATER NODE
   Branch,38,GROUND HX LOOP DEMAND BRANCH 37,GROUND HX LOOP,Plant Demand,TZ_CORE_TOP WATER-TO-AIR HP HTG COIL INLET WATER NODE,TZ_CORE_TOP WATER-TO-AIR HP HTG COIL OUTLET WATER NODE
   Branch,39,GROUND HX LOOP DEMAND BRANCH 38,GROUND HX LOOP,Plant Demand,TZ_CORE_TOP WATER-TO-AIR HP CLG COIL INLET WATER NODE,TZ_CORE_TOP WATER-TO-AIR HP CLG COIL OUTLET WATER NODE
   Branch,40,GROUND HX LOOP DEMAND BRANCH 39,GROUND HX LOOP,Plant Demand,TZ_CORE_BOTTOM WATER-TO-AIR HP HTG COIL INLET WATER NODE,TZ_CORE_BOTTOM WATER-TO-AIR HP HTG COIL OUTLET WATER NODE
   Branch,41,GROUND HX LOOP DEMAND BRANCH 40,GROUND HX LOOP,Plant Demand,TZ_CORE_BOTTOM WATER-TO-AIR HP CLG COIL INLET WATER NODE,TZ_CORE_BOTTOM WATER-TO-AIR HP CLG COIL OUTLET WATER NODE
   Branch,42,GROUND HX LOOP DEMAND BYPASS BRANCH,GROUND HX LOOP,Plant Demand,GROUND HX LOOP DEMAND BYPASS PIPE INLET NODE,GROUND HX LOOP DEMAND BYPASS PIPE OUTLET NODE
   Branch,43,GROUND HX LOOP DEMAND OUTLET BRANCH,GROUND HX LOOP,Plant Demand,GROUND HX LOOP DEMAND OUTLET PIPE NODE,GROUND HX LOOP DEMAND OUTLET NODE
 Branch List,4,MAIN SERVICE WATER LOOP SUPPLY BRANCHES,MAIN SERVICE WATER LOOP,Plant Supply,4
   Branch,1,MAIN SERVICE WATER LOOP SUPPLY INLET BRANCH,MAIN SERVICE WATER LOOP,Plant Supply,MAIN SERVICE WATER LOOP SUPPLY INLET NODE,SERVICE WATER LOOP PUMP OUTLET WATER NODE
   Branch,2,MAIN SERVICE WATER LOOP SUPPLY BRANCH 1,MAIN SERVICE WATER LOOP,Plant Supply,100GAL NATURAL GAS WATER HEATER - 100KBTU/HR 0.802 THERM EFF SUPPLY INLET WATER NODE,100GAL NATURAL GAS WATER HEATER - 100KBTU/HR 0.802 THERM EFF SUPPLY OUTLET WATER NODE
   Branch,3,MAIN SERVICE WATER LOOP SUPPLY BRANCH 2,MAIN SERVICE WATER LOOP,Plant Supply,PIPE ADIABATIC 1 INLET WATER NODE,PIPE ADIABATIC 1 OUTLET WATER NODE
   Branch,4,MAIN SERVICE WATER LOOP SUPPLY OUTLET BRANCH,MAIN SERVICE WATER LOOP,Plant Supply,PIPE ADIABATIC 3 INLET WATER NODE,MAIN SERVICE WATER LOOP SUPPLY OUTLET NODE
 Branch List,5,MAIN SERVICE WATER LOOP DEMAND BRANCHES,MAIN SERVICE WATER LOOP,Plant Demand,19
   Branch,1,MAIN SERVICE WATER LOOP DEMAND INLET BRANCH,MAIN SERVICE WATER LOOP,Plant Demand,MAIN SERVICE WATER LOOP DEMAND INLET NODE,PIPE ADIABATIC 4 OUTLET WATER NODE
   Branch,2,MAIN SERVICE WATER LOOP DEMAND BRANCH 1,MAIN SERVICE WATER LOOP,Plant Demand,PIPE ADIABATIC 2 INLET WATER NODE,PIPE ADIABATIC 2 OUTLET WATER NODE
   Branch,3,MAIN SERVICE WATER LOOP DEMAND BRANCH 2,MAIN SERVICE WATER LOOP,Plant Demand,WATER USE CONNECTIONS 1 INLET WATER NODE,WATER USE CONNECTIONS 1 OUTLET WATER NODE
   Branch,4,MAIN SERVICE WATER LOOP DEMAND BRANCH 3,MAIN SERVICE WATER LOOP,Plant Demand,WATER USE CONNECTIONS 2 INLET WATER NODE,WATER USE CONNECTIONS 2 OUTLET WATER NODE
   Branch,5,MAIN SERVICE WATER LOOP DEMAND BRANCH 4,MAIN SERVICE WATER LOOP,Plant Demand,WATER USE CONNECTIONS 3 INLET WATER NODE,WATER USE CONNECTIONS 3 OUTLET WATER NODE
   Branch,6,MAIN SERVICE WATER LOOP DEMAND BRANCH 5,MAIN SERVICE WATER LOOP,Plant Demand,WATER USE CONNECTIONS 4 INLET WATER NODE,WATER USE CONNECTIONS 4 OUTLET WATER NODE
   Branch,7,MAIN SERVICE WATER LOOP DEMAND BRANCH 6,MAIN SERVICE WATER LOOP,Plant Demand,WATER USE CONNECTIONS 5 INLET WATER NODE,WATER USE CONNECTIONS 5 OUTLET WATER NODE
   Branch,8,MAIN SERVICE WATER LOOP DEMAND BRANCH 7,MAIN SERVICE WATER LOOP,Plant Demand,WATER USE CONNECTIONS 6 INLET WATER NODE,WATER USE CONNECTIONS 6 OUTLET WATER NODE
   Branch,9,MAIN SERVICE WATER LOOP DEMAND BRANCH 8,MAIN SERVICE WATER LOOP,Plant Demand,WATER USE CONNECTIONS 7 INLET WATER NODE,WATER USE CONNECTIONS 7 OUTLET WATER NODE
   Branch,10,MAIN SERVICE WATER LOOP DEMAND BRANCH 9,MAIN SERVICE WATER LOOP,Plant Demand,WATER USE CONNECTIONS 8 INLET WATER NODE,WATER USE CONNECTIONS 8 OUTLET WATER NODE
   Branch,11,MAIN SERVICE WATER LOOP DEMAND BRANCH 10,MAIN SERVICE WATER LOOP,Plant Demand,WATER USE CONNECTIONS 9 INLET WATER NODE,WATER USE CONNECTIONS 9 OUTLET WATER NODE
   Branch,12,MAIN SERVICE WATER LOOP DEMAND BRANCH 11,MAIN SERVICE WATER LOOP,Plant Demand,WATER USE CONNECTIONS 10 INLET WATER NODE,WATER USE CONNECTIONS 10 OUTLET WATER NODE
   Branch,13,MAIN SERVICE WATER LOOP DEMAND BRANCH 12,MAIN SERVICE WATER LOOP,Plant Demand,WATER USE CONNECTIONS 11 INLET WATER NODE,WATER USE CONNECTIONS 11 OUTLET WATER NODE
   Branch,14,MAIN SERVICE WATER LOOP DEMAND BRANCH 13,MAIN SERVICE WATER LOOP,Plant Demand,WATER USE CONNECTIONS 12 INLET WATER NODE,WATER USE CONNECTIONS 12 OUTLET WATER NODE
   Branch,15,MAIN SERVICE WATER LOOP DEMAND BRANCH 14,MAIN SERVICE WATER LOOP,Plant Demand,WATER USE CONNECTIONS 13 INLET WATER NODE,WATER USE CONNECTIONS 13 OUTLET WATER NODE
   Branch,16,MAIN SERVICE WATER LOOP DEMAND BRANCH 15,MAIN SERVICE WATER LOOP,Plant Demand,WATER USE CONNECTIONS 14 INLET WATER NODE,WATER USE CONNECTIONS 14 OUTLET WATER NODE
   Branch,17,MAIN SERVICE WATER LOOP DEMAND BRANCH 16,MAIN SERVICE WATER LOOP,Plant Demand,WATER USE CONNECTIONS 15 INLET WATER NODE,WATER USE CONNECTIONS 15 OUTLET WATER NODE
   Branch,18,MAIN SERVICE WATER LOOP DEMAND BYPASS BRANCH,MAIN SERVICE WATER LOOP,Plant Demand,MAIN SERVICE WATER LOOP DEMAND BYPASS PIPE INLET NODE,MAIN SERVICE WATER LOOP DEMAND BYPASS PIPE OUTLET NODE
   Branch,19,MAIN SERVICE WATER LOOP DEMAND OUTLET BRANCH,MAIN SERVICE WATER LOOP,Plant Demand,PIPE ADIABATIC 5 INLET WATER NODE,MAIN SERVICE WATER LOOP DEMAND OUTLET NODE
! ===============================================================
! <#Supply Air Paths>,<Number of Supply Air Paths>
 #Supply Air Paths,1
! <Supply Air Path>,<Supply Air Path Count>,<Supply Air Path Name>,<AirLoopHVAC Name>
! <#Components on Supply Air Path>,<Number of Components>
! <Supply Air Path Component>,<Component Count>,<Component Type>,<Component Name>,<AirLoopHVAC Name>
! <#Outlet Nodes on Supply Air Path Component>,<Number of Nodes>
! <Supply Air Path Component Nodes>,<Node Count>,<Component Type>,<Component Name>,<Inlet Node Name>,<Outlet Node Name>,<AirLoopHVAC Name>
 Supply Air Path,1,20 ZONE DOAS 20 ZONE DOAS DEMAND INLET NODE SUPPLY PATH,20 ZONE DOAS
   #Components on Supply Air Path,1
   Supply Air Path Component,1,AIRLOOPHVAC:ZONESPLITTER,AIR LOOP HVAC ZONE SPLITTER 1,20 ZONE DOAS
     #Outlet Nodes on Supply Air Path Component,20
     Supply Air Path Component Nodes,1,AIRLOOPHVAC:ZONESPLITTER,AIR LOOP HVAC ZONE SPLITTER 1,20 ZONE DOAS DEMAND INLET NODE,TZ_PERIMETER_GROUND_ZN_3 AIR TERMINAL INLET AIR NODE,20 ZONE DOAS
     Supply Air Path Component Nodes,2,AIRLOOPHVAC:ZONESPLITTER,AIR LOOP HVAC ZONE SPLITTER 1,20 ZONE DOAS DEMAND INLET NODE,TZ_CORE_GROUND AIR TERMINAL INLET AIR NODE,20 ZONE DOAS
     Supply Air Path Component Nodes,3,AIRLOOPHVAC:ZONESPLITTER,AIR LOOP HVAC ZONE SPLITTER 1,20 ZONE DOAS DEMAND INLET NODE,TZ_PERIMETER_MID_ZN_3 AIR TERMINAL INLET AIR NODE,20 ZONE DOAS
     Supply Air Path Component Nodes,4,AIRLOOPHVAC:ZONESPLITTER,AIR LOOP HVAC ZONE SPLITTER 1,20 ZONE DOAS DEMAND INLET NODE,TZ_PERIMETER_TOP_ZN_4 AIR TERMINAL INLET AIR NODE,20 ZONE DOAS
     Supply Air Path Component Nodes,5,AIRLOOPHVAC:ZONESPLITTER,AIR LOOP HVAC ZONE SPLITTER 1,20 ZONE DOAS DEMAND INLET NODE,TZ_PERIMETER_TOP_ZN_2 AIR TERMINAL INLET AIR NODE,20 ZONE DOAS
     Supply Air Path Component Nodes,6,AIRLOOPHVAC:ZONESPLITTER,AIR LOOP HVAC ZONE SPLITTER 1,20 ZONE DOAS DEMAND INLET NODE,TZ_PERIMETER_TOP_ZN_1 AIR TERMINAL INLET AIR NODE,20 ZONE DOAS
     Supply Air Path Component Nodes,7,AIRLOOPHVAC:ZONESPLITTER,AIR LOOP HVAC ZONE SPLITTER 1,20 ZONE DOAS DEMAND INLET NODE,TZ_PERIMETER_MID_ZN_4 AIR TERMINAL INLET AIR NODE,20 ZONE DOAS
     Supply Air Path Component Nodes,8,AIRLOOPHVAC:ZONESPLITTER,AIR LOOP HVAC ZONE SPLITTER 1,20 ZONE DOAS DEMAND INLET NODE,TZ_PERIMETER_GROUND_ZN_4 AIR TERMINAL INLET AIR NODE,20 ZONE DOAS
     Supply Air Path Component Nodes,9,AIRLOOPHVAC:ZONESPLITTER,AIR LOOP HVAC ZONE SPLITTER 1,20 ZONE DOAS DEMAND INLET NODE,TZ_PERIMETER_MID_ZN_1 AIR TERMINAL INLET AIR NODE,20 ZONE DOAS
     Supply Air Path Component Nodes,10,AIRLOOPHVAC:ZONESPLITTER,AIR LOOP HVAC ZONE SPLITTER 1,20 ZONE DOAS DEMAND INLET NODE,TZ_PERIMETER_BOT_ZN_3 AIR TERMINAL INLET AIR NODE,20 ZONE DOAS
     Supply Air Path Component Nodes,11,AIRLOOPHVAC:ZONESPLITTER,AIR LOOP HVAC ZONE SPLITTER 1,20 ZONE DOAS DEMAND INLET NODE,TZ_PERIMETER_MID_ZN_2 AIR TERMINAL INLET AIR NODE,20 ZONE DOAS
     Supply Air Path Component Nodes,12,AIRLOOPHVAC:ZONESPLITTER,AIR LOOP HVAC ZONE SPLITTER 1,20 ZONE DOAS DEMAND INLET NODE,TZ_PERIMETER_BOT_ZN_4 AIR TERMINAL INLET AIR NODE,20 ZONE DOAS
     Supply Air Path Component Nodes,13,AIRLOOPHVAC:ZONESPLITTER,AIR LOOP HVAC ZONE SPLITTER 1,20 ZONE DOAS DEMAND INLET NODE,TZ_PERIMETER_BOT_ZN_2 AIR TERMINAL INLET AIR NODE,20 ZONE DOAS
     Supply Air Path Component Nodes,14,AIRLOOPHVAC:ZONESPLITTER,AIR LOOP HVAC ZONE SPLITTER 1,20 ZONE DOAS DEMAND INLET NODE,TZ_PERIMETER_GROUND_ZN_2 AIR TERMINAL INLET AIR NODE,20 ZONE DOAS
     Supply Air Path Component Nodes,15,AIRLOOPHVAC:ZONESPLITTER,AIR LOOP HVAC ZONE SPLITTER 1,20 ZONE DOAS DEMAND INLET NODE,TZ_PERIMETER_BOT_ZN_1 AIR TERMINAL INLET AIR NODE,20 ZONE DOAS
     Supply Air Path Component Nodes,16,AIRLOOPHVAC:ZONESPLITTER,AIR LOOP HVAC ZONE SPLITTER 1,20 ZONE DOAS DEMAND INLET NODE,TZ_PERIMETER_GROUND_ZN_1 AIR TERMINAL INLET AIR NODE,20 ZONE DOAS
     Supply Air Path Component Nodes,17,AIRLOOPHVAC:ZONESPLITTER,AIR LOOP HVAC ZONE SPLITTER 1,20 ZONE DOAS DEMAND INLET NODE,TZ_CORE_MID AIR TERMINAL INLET AIR NODE,20 ZONE DOAS
     Supply Air Path Component Nodes,18,AIRLOOPHVAC:ZONESPLITTER,AIR LOOP HVAC ZONE SPLITTER 1,20 ZONE DOAS DEMAND INLET NODE,TZ_PERIMETER_TOP_ZN_3 AIR TERMINAL INLET AIR NODE,20 ZONE DOAS
     Supply Air Path Component Nodes,19,AIRLOOPHVAC:ZONESPLITTER,AIR LOOP HVAC ZONE SPLITTER 1,20 ZONE DOAS DEMAND INLET NODE,TZ_CORE_TOP AIR TERMINAL INLET AIR NODE,20 ZONE DOAS
     Supply Air Path Component Nodes,20,AIRLOOPHVAC:ZONESPLITTER,AIR LOOP HVAC ZONE SPLITTER 1,20 ZONE DOAS DEMAND INLET NODE,TZ_CORE_BOTTOM AIR TERMINAL INLET AIR NODE,20 ZONE DOAS
! <#Nodes on Supply Air Path>,<Number of Nodes>
! <Supply Air Path Node>,<Node Type>,<Node Count>,<Node Name>,<AirLoopHVAC Name>
#Nodes on Supply Air Path,21
   Supply Air Path Node,Inlet Node,1,20 ZONE DOAS DEMAND INLET NODE,20 ZONE DOAS
   Supply Air Path Node,Outlet Node,2,TZ_PERIMETER_GROUND_ZN_3 AIR TERMINAL INLET AIR NODE,20 ZONE DOAS
   Supply Air Path Node,Outlet Node,3,TZ_CORE_GROUND AIR TERMINAL INLET AIR NODE,20 ZONE DOAS
   Supply Air Path Node,Outlet Node,4,TZ_PERIMETER_MID_ZN_3 AIR TERMINAL INLET AIR NODE,20 ZONE DOAS
   Supply Air Path Node,Outlet Node,5,TZ_PERIMETER_TOP_ZN_4 AIR TERMINAL INLET AIR NODE,20 ZONE DOAS
   Supply Air Path Node,Outlet Node,6,TZ_PERIMETER_TOP_ZN_2 AIR TERMINAL INLET AIR NODE,20 ZONE DOAS
   Supply Air Path Node,Outlet Node,7,TZ_PERIMETER_TOP_ZN_1 AIR TERMINAL INLET AIR NODE,20 ZONE DOAS
   Supply Air Path Node,Outlet Node,8,TZ_PERIMETER_MID_ZN_4 AIR TERMINAL INLET AIR NODE,20 ZONE DOAS
   Supply Air Path Node,Outlet Node,9,TZ_PERIMETER_GROUND_ZN_4 AIR TERMINAL INLET AIR NODE,20 ZONE DOAS
   Supply Air Path Node,Outlet Node,10,TZ_PERIMETER_MID_ZN_1 AIR TERMINAL INLET AIR NODE,20 ZONE DOAS
   Supply Air Path Node,Outlet Node,11,TZ_PERIMETER_BOT_ZN_3 AIR TERMINAL INLET AIR NODE,20 ZONE DOAS
   Supply Air Path Node,Outlet Node,12,TZ_PERIMETER_MID_ZN_2 AIR TERMINAL INLET AIR NODE,20 ZONE DOAS
   Supply Air Path Node,Outlet Node,13,TZ_PERIMETER_BOT_ZN_4 AIR TERMINAL INLET AIR NODE,20 ZONE DOAS
   Supply Air Path Node,Outlet Node,14,TZ_PERIMETER_BOT_ZN_2 AIR TERMINAL INLET AIR NODE,20 ZONE DOAS
   Supply Air Path Node,Outlet Node,15,TZ_PERIMETER_GROUND_ZN_2 AIR TERMINAL INLET AIR NODE,20 ZONE DOAS
   Supply Air Path Node,Outlet Node,16,TZ_PERIMETER_BOT_ZN_1 AIR TERMINAL INLET AIR NODE,20 ZONE DOAS
   Supply Air Path Node,Outlet Node,17,TZ_PERIMETER_GROUND_ZN_1 AIR TERMINAL INLET AIR NODE,20 ZONE DOAS
   Supply Air Path Node,Outlet Node,18,TZ_CORE_MID AIR TERMINAL INLET AIR NODE,20 ZONE DOAS
   Supply Air Path Node,Outlet Node,19,TZ_PERIMETER_TOP_ZN_3 AIR TERMINAL INLET AIR NODE,20 ZONE DOAS
   Supply Air Path Node,Outlet Node,20,TZ_CORE_TOP AIR TERMINAL INLET AIR NODE,20 ZONE DOAS
   Supply Air Path Node,Outlet Node,21,TZ_CORE_BOTTOM AIR TERMINAL INLET AIR NODE,20 ZONE DOAS
! ===============================================================
! <#Return Air Paths>,<Number of Return Air Paths>
 #Return Air Paths,1
! <Return Air Path>,<Return Air Path Count>,<Return Air Path Name>,<AirLoopHVAC Name>
! <#Components on Return Air Path>,<Number of Components>
! <Return Air Path Component>,<Component Count>,<Component Type>,<Component Name>,<AirLoopHVAC Name>
! <#Inlet Nodes on Return Air Path Component>,<Number of Nodes>
! <Return Air Path Component Nodes>,<Node Count>,<Component Type>,<Component Name>,<Inlet Node Name>,<Outlet Node Name>,<AirLoopHVAC Name>
 Return Air Path,1,20 ZONE DOAS RETURN PATH,20 ZONE DOAS
   #Components on Return Air Path,1
   Return Air Path Component,1,AIRLOOPHVAC:ZONEMIXER,AIR LOOP HVAC ZONE MIXER 1,20 ZONE DOAS
     #Inlet Nodes on Return Air Path Component,20
     Return Air Path Component Nodes,1,AIRLOOPHVAC:ZONEMIXER,AIR LOOP HVAC ZONE MIXER 1,TZ_PERIMETER_GROUND_ZN_3 RETURN AIR NODE,20 ZONE DOAS DEMAND OUTLET NODE,20 ZONE DOAS
     Return Air Path Component Nodes,2,AIRLOOPHVAC:ZONEMIXER,AIR LOOP HVAC ZONE MIXER 1,TZ_CORE_GROUND RETURN AIR NODE,20 ZONE DOAS DEMAND OUTLET NODE,20 ZONE DOAS
     Return Air Path Component Nodes,3,AIRLOOPHVAC:ZONEMIXER,AIR LOOP HVAC ZONE MIXER 1,TZ_PERIMETER_MID_ZN_3 RETURN AIR NODE,20 ZONE DOAS DEMAND OUTLET NODE,20 ZONE DOAS
     Return Air Path Component Nodes,4,AIRLOOPHVAC:ZONEMIXER,AIR LOOP HVAC ZONE MIXER 1,TZ_PERIMETER_TOP_ZN_4 RETURN AIR NODE,20 ZONE DOAS DEMAND OUTLET NODE,20 ZONE DOAS
     Return Air Path Component Nodes,5,AIRLOOPHVAC:ZONEMIXER,AIR LOOP HVAC ZONE MIXER 1,TZ_PERIMETER_TOP_ZN_2 RETURN AIR NODE,20 ZONE DOAS DEMAND OUTLET NODE,20 ZONE DOAS
     Return Air Path Component Nodes,6,AIRLOOPHVAC:ZONEMIXER,AIR LOOP HVAC ZONE MIXER 1,TZ_PERIMETER_TOP_ZN_1 RETURN AIR NODE,20 ZONE DOAS DEMAND OUTLET NODE,20 ZONE DOAS
     Return Air Path Component Nodes,7,AIRLOOPHVAC:ZONEMIXER,AIR LOOP HVAC ZONE MIXER 1,TZ_PERIMETER_MID_ZN_4 RETURN AIR NODE,20 ZONE DOAS DEMAND OUTLET NODE,20 ZONE DOAS
     Return Air Path Component Nodes,8,AIRLOOPHVAC:ZONEMIXER,AIR LOOP HVAC ZONE MIXER 1,TZ_PERIMETER_GROUND_ZN_4 RETURN AIR NODE,20 ZONE DOAS DEMAND OUTLET NODE,20 ZONE DOAS
     Return Air Path Component Nodes,9,AIRLOOPHVAC:ZONEMIXER,AIR LOOP HVAC ZONE MIXER 1,TZ_PERIMETER_MID_ZN_1 RETURN AIR NODE,20 ZONE DOAS DEMAND OUTLET NODE,20 ZONE DOAS
     Return Air Path Component Nodes,10,AIRLOOPHVAC:ZONEMIXER,AIR LOOP HVAC ZONE MIXER 1,TZ_PERIMETER_BOT_ZN_3 RETURN AIR NODE,20 ZONE DOAS DEMAND OUTLET NODE,20 ZONE DOAS
     Return Air Path Component Nodes,11,AIRLOOPHVAC:ZONEMIXER,AIR LOOP HVAC ZONE MIXER 1,TZ_PERIMETER_MID_ZN_2 RETURN AIR NODE,20 ZONE DOAS DEMAND OUTLET NODE,20 ZONE DOAS
     Return Air Path Component Nodes,12,AIRLOOPHVAC:ZONEMIXER,AIR LOOP HVAC ZONE MIXER 1,TZ_PERIMETER_BOT_ZN_4 RETURN AIR NODE,20 ZONE DOAS DEMAND OUTLET NODE,20 ZONE DOAS
     Return Air Path Component Nodes,13,AIRLOOPHVAC:ZONEMIXER,AIR LOOP HVAC ZONE MIXER 1,TZ_PERIMETER_BOT_ZN_2 RETURN AIR NODE,20 ZONE DOAS DEMAND OUTLET NODE,20 ZONE DOAS
     Return Air Path Component Nodes,14,AIRLOOPHVAC:ZONEMIXER,AIR LOOP HVAC ZONE MIXER 1,TZ_PERIMETER_GROUND_ZN_2 RETURN AIR NODE,20 ZONE DOAS DEMAND OUTLET NODE,20 ZONE DOAS
     Return Air Path Component Nodes,15,AIRLOOPHVAC:ZONEMIXER,AIR LOOP HVAC ZONE MIXER 1,TZ_PERIMETER_BOT_ZN_1 RETURN AIR NODE,20 ZONE DOAS DEMAND OUTLET NODE,20 ZONE DOAS
     Return Air Path Component Nodes,16,AIRLOOPHVAC:ZONEMIXER,AIR LOOP HVAC ZONE MIXER 1,TZ_PERIMETER_GROUND_ZN_1 RETURN AIR NODE,20 ZONE DOAS DEMAND OUTLET NODE,20 ZONE DOAS
     Return Air Path Component Nodes,17,AIRLOOPHVAC:ZONEMIXER,AIR LOOP HVAC ZONE MIXER 1,TZ_CORE_MID RETURN AIR NODE,20 ZONE DOAS DEMAND OUTLET NODE,20 ZONE DOAS
     Return Air Path Component Nodes,18,AIRLOOPHVAC:ZONEMIXER,AIR LOOP HVAC ZONE MIXER 1,TZ_PERIMETER_TOP_ZN_3 RETURN AIR NODE,20 ZONE DOAS DEMAND OUTLET NODE,20 ZONE DOAS
     Return Air Path Component Nodes,19,AIRLOOPHVAC:ZONEMIXER,AIR LOOP HVAC ZONE MIXER 1,TZ_CORE_TOP RETURN AIR NODE,20 ZONE DOAS DEMAND OUTLET NODE,20 ZONE DOAS
     Return Air Path Component Nodes,20,AIRLOOPHVAC:ZONEMIXER,AIR LOOP HVAC ZONE MIXER 1,TZ_CORE_BOTTOM RETURN AIR NODE,20 ZONE DOAS DEMAND OUTLET NODE,20 ZONE DOAS
! <#Nodes on Return Air Path>,<Number of Nodes>
! <Return Air Path Node>,<Node Type>,<Node Count>,<Node Name>,<AirLoopHVAC Name>
   #Nodes on Return Air Path,21
   Return Air Path Node,Outlet Node,1,20 ZONE DOAS DEMAND OUTLET NODE,20 ZONE DOAS
   Return Air Path Node,Inlet Node,2,TZ_PERIMETER_GROUND_ZN_3 RETURN AIR NODE,20 ZONE DOAS
   Return Air Path Node,Inlet Node,3,TZ_CORE_GROUND RETURN AIR NODE,20 ZONE DOAS
   Return Air Path Node,Inlet Node,4,TZ_PERIMETER_MID_ZN_3 RETURN AIR NODE,20 ZONE DOAS
   Return Air Path Node,Inlet Node,5,TZ_PERIMETER_TOP_ZN_4 RETURN AIR NODE,20 ZONE DOAS
   Return Air Path Node,Inlet Node,6,TZ_PERIMETER_TOP_ZN_2 RETURN AIR NODE,20 ZONE DOAS
   Return Air Path Node,Inlet Node,7,TZ_PERIMETER_TOP_ZN_1 RETURN AIR NODE,20 ZONE DOAS
   Return Air Path Node,Inlet Node,8,TZ_PERIMETER_MID_ZN_4 RETURN AIR NODE,20 ZONE DOAS
   Return Air Path Node,Inlet Node,9,TZ_PERIMETER_GROUND_ZN_4 RETURN AIR NODE,20 ZONE DOAS
   Return Air Path Node,Inlet Node,10,TZ_PERIMETER_MID_ZN_1 RETURN AIR NODE,20 ZONE DOAS
   Return Air Path Node,Inlet Node,11,TZ_PERIMETER_BOT_ZN_3 RETURN AIR NODE,20 ZONE DOAS
   Return Air Path Node,Inlet Node,12,TZ_PERIMETER_MID_ZN_2 RETURN AIR NODE,20 ZONE DOAS
   Return Air Path Node,Inlet Node,13,TZ_PERIMETER_BOT_ZN_4 RETURN AIR NODE,20 ZONE DOAS
   Return Air Path Node,Inlet Node,14,TZ_PERIMETER_BOT_ZN_2 RETURN AIR NODE,20 ZONE DOAS
   Return Air Path Node,Inlet Node,15,TZ_PERIMETER_GROUND_ZN_2 RETURN AIR NODE,20 ZONE DOAS
   Return Air Path Node,Inlet Node,16,TZ_PERIMETER_BOT_ZN_1 RETURN AIR NODE,20 ZONE DOAS
   Return Air Path Node,Inlet Node,17,TZ_PERIMETER_GROUND_ZN_1 RETURN AIR NODE,20 ZONE DOAS
   Return Air Path Node,Inlet Node,18,TZ_CORE_MID RETURN AIR NODE,20 ZONE DOAS
   Return Air Path Node,Inlet Node,19,TZ_PERIMETER_TOP_ZN_3 RETURN AIR NODE,20 ZONE DOAS
   Return Air Path Node,Inlet Node,20,TZ_CORE_TOP RETURN AIR NODE,20 ZONE DOAS
   Return Air Path Node,Inlet Node,21,TZ_CORE_BOTTOM RETURN AIR NODE,20 ZONE DOAS
! ===============================================================
! #Outdoor Air Nodes,<Number of Outdoor Air Nodes>
 #Outdoor Air Nodes,2
! <Outdoor Air Node>,<NodeNumber>,<Node Name>
 Outdoor Air Node,248,20 ZONE DOAS OUTDOOR AIR NODE
 Outdoor Air Node,249,MODEL OUTDOOR AIR NODE
! ===============================================================
! <#Component Sets>,<Number of Component Sets>
 #Component Sets,179
! <Component Set>,<Component Set Count>,<Parent Object Type>,<Parent Object Name>,<Component Type>,<Component Name>,<Inlet Node ID>,<Outlet Node ID>,<Description>
 Component Set,1,BRANCH,20 ZONE DOAS MAIN BRANCH,FAN:CONSTANTVOLUME,DOAS EXHAUST FAN,20 ZONE DOAS SUPPLY INLET NODE,DOAS EXHAUST FAN OUTLET AIR NODE,Air Nodes
 Component Set,2,BRANCH,20 ZONE DOAS MAIN BRANCH,AIRLOOPHVAC:OUTDOORAIRSYSTEM,20 ZONE DOAS OA SYSTEM,DOAS EXHAUST FAN OUTLET AIR NODE,20 ZONE DOAS MIXED AIR NODE,Air Nodes
 Component Set,3,BRANCH,20 ZONE DOAS MAIN BRANCH,COILSYSTEM:COOLING:DX,20 ZONE DOAS 2SPD DX CLG COIL COILSYSTEM,20 ZONE DOAS MIXED AIR NODE,20 ZONE DOAS 2SPD DX CLG COIL OUTLET AIR NODE,Air Nodes
 Component Set,4,BRANCH,20 ZONE DOAS MAIN BRANCH,COILSYSTEM:HEATING:DX,20 ZONE DOAS HTG COIL 348 CLG KBTU/HR 3.3COPH COILSYSTEM,20 ZONE DOAS 2SPD DX CLG COIL OUTLET AIR NODE,20 ZONE DOAS HTG COIL OUTLET AIR NODE,Air Nodes
 Component Set,5,BRANCH,20 ZONE DOAS MAIN BRANCH,COIL:HEATING:ELECTRIC,20 ZONE DOAS BACKUP HTG COIL,20 ZONE DOAS HTG COIL OUTLET AIR NODE,20 ZONE DOAS BACKUP HTG COIL OUTLET AIR NODE,Air Nodes
 Component Set,6,BRANCH,20 ZONE DOAS MAIN BRANCH,FAN:CONSTANTVOLUME,DOAS SUPPLY FAN,20 ZONE DOAS BACKUP HTG COIL OUTLET AIR NODE,20 ZONE DOAS SUPPLY OUTLET NODE,Air Nodes
 Component Set,7,BRANCH,GROUND HX LOOP SUPPLY INLET BRANCH,PUMP:CONSTANTSPEED,GROUND HX LOOP PUMP,GROUND HX LOOP SUPPLY INLET NODE,GROUND HX LOOP PUMP OUTLET WATER NODE,Water Nodes
 Component Set,8,BRANCH,GROUND HX LOOP SUPPLY BRANCH 1,PLANTCOMPONENT:TEMPERATURESOURCE,GROUND HX,GROUND HX INLET WATER NODE,GROUND HX OUTLET WATER NODE,Chilled Water Nodes
 Component Set,9,BRANCH,GROUND HX LOOP SUPPLY OUTLET BRANCH,PIPE:ADIABATIC,GROUND HX LOOP SUPPLY OUTLET PIPE,GROUND HX LOOP SUPPLY OUTLET PIPE NODE,GROUND HX LOOP SUPPLY OUTLET NODE,Pipe Nodes
 Component Set,10,BRANCH,GROUND HX LOOP DEMAND INLET BRANCH,PIPE:ADIABATIC,GROUND HX LOOP DEMAND INLET PIPE,GROUND HX LOOP DEMAND INLET NODE,GROUND HX LOOP DEMAND INLET PIPE NODE,Pipe Nodes
 Component Set,11,BRANCH,GROUND HX LOOP DEMAND BRANCH 1,COIL:HEATING:WATERTOAIRHEATPUMP:EQUATIONFIT,TZ_PERIMETER_GROUND_ZN_3 WATER-TO-AIR HP HTG COIL,TZ_PERIMETER_GROUND_ZN_3 WATER-TO-AIR HP HTG COIL INLET WATER NODE,TZ_PERIMETER_GROUND_ZN_3 WATER-TO-AIR HP HTG COIL OUTLET WATER NODE,Water Nodes
 Component Set,12,BRANCH,GROUND HX LOOP DEMAND BRANCH 2,COIL:COOLING:WATERTOAIRHEATPUMP:EQUATIONFIT,TZ_PERIMETER_GROUND_ZN_3 WATER-TO-AIR HP CLG COIL,TZ_PERIMETER_GROUND_ZN_3 WATER-TO-AIR HP CLG COIL INLET WATER NODE,TZ_PERIMETER_GROUND_ZN_3 WATER-TO-AIR HP CLG COIL OUTLET WATER NODE,Water Nodes
 Component Set,13,BRANCH,GROUND HX LOOP DEMAND BRANCH 3,COIL:HEATING:WATERTOAIRHEATPUMP:EQUATIONFIT,TZ_CORE_GROUND WATER-TO-AIR HP HTG COIL,TZ_CORE_GROUND WATER-TO-AIR HP HTG COIL INLET WATER NODE,TZ_CORE_GROUND WATER-TO-AIR HP HTG COIL OUTLET WATER NODE,Water Nodes
 Component Set,14,BRANCH,GROUND HX LOOP DEMAND BRANCH 4,COIL:COOLING:WATERTOAIRHEATPUMP:EQUATIONFIT,TZ_CORE_GROUND WATER-TO-AIR HP CLG COIL,TZ_CORE_GROUND WATER-TO-AIR HP CLG COIL INLET WATER NODE,TZ_CORE_GROUND WATER-TO-AIR HP CLG COIL OUTLET WATER NODE,Water Nodes
 Component Set,15,BRANCH,GROUND HX LOOP DEMAND BRANCH 5,COIL:HEATING:WATERTOAIRHEATPUMP:EQUATIONFIT,TZ_PERIMETER_MID_ZN_3 WATER-TO-AIR HP HTG COIL,TZ_PERIMETER_MID_ZN_3 WATER-TO-AIR HP HTG COIL INLET WATER NODE,TZ_PERIMETER_MID_ZN_3 WATER-TO-AIR HP HTG COIL OUTLET WATER NODE,Water Nodes
 Component Set,16,BRANCH,GROUND HX LOOP DEMAND BRANCH 6,COIL:COOLING:WATERTOAIRHEATPUMP:EQUATIONFIT,TZ_PERIMETER_MID_ZN_3 WATER-TO-AIR HP CLG COIL,TZ_PERIMETER_MID_ZN_3 WATER-TO-AIR HP CLG COIL INLET WATER NODE,TZ_PERIMETER_MID_ZN_3 WATER-TO-AIR HP CLG COIL OUTLET WATER NODE,Water Nodes
 Component Set,17,BRANCH,GROUND HX LOOP DEMAND BRANCH 7,COIL:HEATING:WATERTOAIRHEATPUMP:EQUATIONFIT,TZ_PERIMETER_TOP_ZN_4 WATER-TO-AIR HP HTG COIL,TZ_PERIMETER_TOP_ZN_4 WATER-TO-AIR HP HTG COIL INLET WATER NODE,TZ_PERIMETER_TOP_ZN_4 WATER-TO-AIR HP HTG COIL OUTLET WATER NODE,Water Nodes
 Component Set,18,BRANCH,GROUND HX LOOP DEMAND BRANCH 8,COIL:COOLING:WATERTOAIRHEATPUMP:EQUATIONFIT,TZ_PERIMETER_TOP_ZN_4 WATER-TO-AIR HP CLG COIL,TZ_PERIMETER_TOP_ZN_4 WATER-TO-AIR HP CLG COIL INLET WATER NODE,TZ_PERIMETER_TOP_ZN_4 WATER-TO-AIR HP CLG COIL OUTLET WATER NODE,Water Nodes
 Component Set,19,BRANCH,GROUND HX LOOP DEMAND BRANCH 9,COIL:HEATING:WATERTOAIRHEATPUMP:EQUATIONFIT,TZ_PERIMETER_TOP_ZN_2 WATER-TO-AIR HP HTG COIL,TZ_PERIMETER_TOP_ZN_2 WATER-TO-AIR HP HTG COIL INLET WATER NODE,TZ_PERIMETER_TOP_ZN_2 WATER-TO-AIR HP HTG COIL OUTLET WATER NODE,Water Nodes
 Component Set,20,BRANCH,GROUND HX LOOP DEMAND BRANCH 10,COIL:COOLING:WATERTOAIRHEATPUMP:EQUATIONFIT,TZ_PERIMETER_TOP_ZN_2 WATER-TO-AIR HP CLG COIL,TZ_PERIMETER_TOP_ZN_2 WATER-TO-AIR HP CLG COIL INLET WATER NODE,TZ_PERIMETER_TOP_ZN_2 WATER-TO-AIR HP CLG COIL OUTLET WATER NODE,Water Nodes
 Component Set,21,BRANCH,GROUND HX LOOP DEMAND BRANCH 11,COIL:HEATING:WATERTOAIRHEATPUMP:EQUATIONFIT,TZ_PERIMETER_TOP_ZN_1 WATER-TO-AIR HP HTG COIL,TZ_PERIMETER_TOP_ZN_1 WATER-TO-AIR HP HTG COIL INLET WATER NODE,TZ_PERIMETER_TOP_ZN_1 WATER-TO-AIR HP HTG COIL OUTLET WATER NODE,Water Nodes
 Component Set,22,BRANCH,GROUND HX LOOP DEMAND BRANCH 12,COIL:COOLING:WATERTOAIRHEATPUMP:EQUATIONFIT,TZ_PERIMETER_TOP_ZN_1 WATER-TO-AIR HP CLG COIL,TZ_PERIMETER_TOP_ZN_1 WATER-TO-AIR HP CLG COIL INLET WATER NODE,TZ_PERIMETER_TOP_ZN_1 WATER-TO-AIR HP CLG COIL OUTLET WATER NODE,Water Nodes
 Component Set,23,BRANCH,GROUND HX LOOP DEMAND BRANCH 13,COIL:HEATING:WATERTOAIRHEATPUMP:EQUATIONFIT,TZ_PERIMETER_MID_ZN_4 WATER-TO-AIR HP HTG COIL,TZ_PERIMETER_MID_ZN_4 WATER-TO-AIR HP HTG COIL INLET WATER NODE,TZ_PERIMETER_MID_ZN_4 WATER-TO-AIR HP HTG COIL OUTLET WATER NODE,Water Nodes
 Component Set,24,BRANCH,GROUND HX LOOP DEMAND BRANCH 14,COIL:COOLING:WATERTOAIRHEATPUMP:EQUATIONFIT,TZ_PERIMETER_MID_ZN_4 WATER-TO-AIR HP CLG COIL,TZ_PERIMETER_MID_ZN_4 WATER-TO-AIR HP CLG COIL INLET WATER NODE,TZ_PERIMETER_MID_ZN_4 WATER-TO-AIR HP CLG COIL OUTLET WATER NODE,Water Nodes
 Component Set,25,BRANCH,GROUND HX LOOP DEMAND BRANCH 15,COIL:HEATING:WATERTOAIRHEATPUMP:EQUATIONFIT,TZ_PERIMETER_GROUND_ZN_4 WATER-TO-AIR HP HTG COIL,TZ_PERIMETER_GROUND_ZN_4 WATER-TO-AIR HP HTG COIL INLET WATER NODE,TZ_PERIMETER_GROUND_ZN_4 WATER-TO-AIR HP HTG COIL OUTLET WATER NODE,Water Nodes
 Component Set,26,BRANCH,GROUND HX LOOP DEMAND BRANCH 16,COIL:COOLING:WATERTOAIRHEATPUMP:EQUATIONFIT,TZ_PERIMETER_GROUND_ZN_4 WATER-TO-AIR HP CLG COIL,TZ_PERIMETER_GROUND_ZN_4 WATER-TO-AIR HP CLG COIL INLET WATER NODE,TZ_PERIMETER_GROUND_ZN_4 WATER-TO-AIR HP CLG COIL OUTLET WATER NODE,Water Nodes
 Component Set,27,BRANCH,GROUND HX LOOP DEMAND BRANCH 17,COIL:HEATING:WATERTOAIRHEATPUMP:EQUATIONFIT,TZ_PERIMETER_MID_ZN_1 WATER-TO-AIR HP HTG COIL,TZ_PERIMETER_MID_ZN_1 WATER-TO-AIR HP HTG COIL INLET WATER NODE,TZ_PERIMETER_MID_ZN_1 WATER-TO-AIR HP HTG COIL OUTLET WATER NODE,Water Nodes
 Component Set,28,BRANCH,GROUND HX LOOP DEMAND BRANCH 18,COIL:COOLING:WATERTOAIRHEATPUMP:EQUATIONFIT,TZ_PERIMETER_MID_ZN_1 WATER-TO-AIR HP CLG COIL,TZ_PERIMETER_MID_ZN_1 WATER-TO-AIR HP CLG COIL INLET WATER NODE,TZ_PERIMETER_MID_ZN_1 WATER-TO-AIR HP CLG COIL OUTLET WATER NODE,Water Nodes
 Component Set,29,BRANCH,GROUND HX LOOP DEMAND BRANCH 19,COIL:HEATING:WATERTOAIRHEATPUMP:EQUATIONFIT,TZ_PERIMETER_BOT_ZN_3 WATER-TO-AIR HP HTG COIL,TZ_PERIMETER_BOT_ZN_3 WATER-TO-AIR HP HTG COIL INLET WATER NODE,TZ_PERIMETER_BOT_ZN_3 WATER-TO-AIR HP HTG COIL OUTLET WATER NODE,Water Nodes
 Component Set,30,BRANCH,GROUND HX LOOP DEMAND BRANCH 20,COIL:COOLING:WATERTOAIRHEATPUMP:EQUATIONFIT,TZ_PERIMETER_BOT_ZN_3 WATER-TO-AIR HP CLG COIL,TZ_PERIMETER_BOT_ZN_3 WATER-TO-AIR HP CLG COIL INLET WATER NODE,TZ_PERIMETER_BOT_ZN_3 WATER-TO-AIR HP CLG COIL OUTLET WATER NODE,Water Nodes
 Component Set,31,BRANCH,GROUND HX LOOP DEMAND BRANCH 21,COIL:HEATING:WATERTOAIRHEATPUMP:EQUATIONFIT,TZ_PERIMETER_MID_ZN_2 WATER-TO-AIR HP HTG COIL,TZ_PERIMETER_MID_ZN_2 WATER-TO-AIR HP HTG COIL INLET WATER NODE,TZ_PERIMETER_MID_ZN_2 WATER-TO-AIR HP HTG COIL OUTLET WATER NODE,Water Nodes
 Component Set,32,BRANCH,GROUND HX LOOP DEMAND BRANCH 22,COIL:COOLING:WATERTOAIRHEATPUMP:EQUATIONFIT,TZ_PERIMETER_MID_ZN_2 WATER-TO-AIR HP CLG COIL,TZ_PERIMETER_MID_ZN_2 WATER-TO-AIR HP CLG COIL INLET WATER NODE,TZ_PERIMETER_MID_ZN_2 WATER-TO-AIR HP CLG COIL OUTLET WATER NODE,Water Nodes
 Component Set,33,BRANCH,GROUND HX LOOP DEMAND BRANCH 23,COIL:HEATING:WATERTOAIRHEATPUMP:EQUATIONFIT,TZ_PERIMETER_BOT_ZN_4 WATER-TO-AIR HP HTG COIL,TZ_PERIMETER_BOT_ZN_4 WATER-TO-AIR HP HTG COIL INLET WATER NODE,TZ_PERIMETER_BOT_ZN_4 WATER-TO-AIR HP HTG COIL OUTLET WATER NODE,Water Nodes
 Component Set,34,BRANCH,GROUND HX LOOP DEMAND BRANCH 24,COIL:COOLING:WATERTOAIRHEATPUMP:EQUATIONFIT,TZ_PERIMETER_BOT_ZN_4 WATER-TO-AIR HP CLG COIL,TZ_PERIMETER_BOT_ZN_4 WATER-TO-AIR HP CLG COIL INLET WATER NODE,TZ_PERIMETER_BOT_ZN_4 WATER-TO-AIR HP CLG COIL OUTLET WATER NODE,Water Nodes
 Component Set,35,BRANCH,GROUND HX LOOP DEMAND BRANCH 25,COIL:HEATING:WATERTOAIRHEATPUMP:EQUATIONFIT,TZ_PERIMETER_BOT_ZN_2 WATER-TO-AIR HP HTG COIL,TZ_PERIMETER_BOT_ZN_2 WATER-TO-AIR HP HTG COIL INLET WATER NODE,TZ_PERIMETER_BOT_ZN_2 WATER-TO-AIR HP HTG COIL OUTLET WATER NODE,Water Nodes
 Component Set,36,BRANCH,GROUND HX LOOP DEMAND BRANCH 26,COIL:COOLING:WATERTOAIRHEATPUMP:EQUATIONFIT,TZ_PERIMETER_BOT_ZN_2 WATER-TO-AIR HP CLG COIL,TZ_PERIMETER_BOT_ZN_2 WATER-TO-AIR HP CLG COIL INLET WATER NODE,TZ_PERIMETER_BOT_ZN_2 WATER-TO-AIR HP CLG COIL OUTLET WATER NODE,Water Nodes
 Component Set,37,BRANCH,GROUND HX LOOP DEMAND BRANCH 27,COIL:HEATING:WATERTOAIRHEATPUMP:EQUATIONFIT,TZ_PERIMETER_GROUND_ZN_2 WATER-TO-AIR HP HTG COIL,TZ_PERIMETER_GROUND_ZN_2 WATER-TO-AIR HP HTG COIL INLET WATER NODE,TZ_PERIMETER_GROUND_ZN_2 WATER-TO-AIR HP HTG COIL OUTLET WATER NODE,Water Nodes
 Component Set,38,BRANCH,GROUND HX LOOP DEMAND BRANCH 28,COIL:COOLING:WATERTOAIRHEATPUMP:EQUATIONFIT,TZ_PERIMETER_GROUND_ZN_2 WATER-TO-AIR HP CLG COIL,TZ_PERIMETER_GROUND_ZN_2 WATER-TO-AIR HP CLG COIL INLET WATER NODE,TZ_PERIMETER_GROUND_ZN_2 WATER-TO-AIR HP CLG COIL OUTLET WATER NODE,Water Nodes
 Component Set,39,BRANCH,GROUND HX LOOP DEMAND BRANCH 29,COIL:HEATING:WATERTOAIRHEATPUMP:EQUATIONFIT,TZ_PERIMETER_BOT_ZN_1 WATER-TO-AIR HP HTG COIL,TZ_PERIMETER_BOT_ZN_1 WATER-TO-AIR HP HTG COIL INLET WATER NODE,TZ_PERIMETER_BOT_ZN_1 WATER-TO-AIR HP HTG COIL OUTLET WATER NODE,Water Nodes
 Component Set,40,BRANCH,GROUND HX LOOP DEMAND BRANCH 30,COIL:COOLING:WATERTOAIRHEATPUMP:EQUATIONFIT,TZ_PERIMETER_BOT_ZN_1 WATER-TO-AIR HP CLG COIL,TZ_PERIMETER_BOT_ZN_1 WATER-TO-AIR HP CLG COIL INLET WATER NODE,TZ_PERIMETER_BOT_ZN_1 WATER-TO-AIR HP CLG COIL OUTLET WATER NODE,Water Nodes
 Component Set,41,BRANCH,GROUND HX LOOP DEMAND BRANCH 31,COIL:HEATING:WATERTOAIRHEATPUMP:EQUATIONFIT,TZ_PERIMETER_GROUND_ZN_1 WATER-TO-AIR HP HTG COIL,TZ_PERIMETER_GROUND_ZN_1 WATER-TO-AIR HP HTG COIL INLET WATER NODE,TZ_PERIMETER_GROUND_ZN_1 WATER-TO-AIR HP HTG COIL OUTLET WATER NODE,Water Nodes
 Component Set,42,BRANCH,GROUND HX LOOP DEMAND BRANCH 32,COIL:COOLING:WATERTOAIRHEATPUMP:EQUATIONFIT,TZ_PERIMETER_GROUND_ZN_1 WATER-TO-AIR HP CLG COIL,TZ_PERIMETER_GROUND_ZN_1 WATER-TO-AIR HP CLG COIL INLET WATER NODE,TZ_PERIMETER_GROUND_ZN_1 WATER-TO-AIR HP CLG COIL OUTLET WATER NODE,Water Nodes
 Component Set,43,BRANCH,GROUND HX LOOP DEMAND BRANCH 33,COIL:HEATING:WATERTOAIRHEATPUMP:EQUATIONFIT,TZ_CORE_MID WATER-TO-AIR HP HTG COIL,TZ_CORE_MID WATER-TO-AIR HP HTG COIL INLET WATER NODE,TZ_CORE_MID WATER-TO-AIR HP HTG COIL OUTLET WATER NODE,Water Nodes
 Component Set,44,BRANCH,GROUND HX LOOP DEMAND BRANCH 34,COIL:COOLING:WATERTOAIRHEATPUMP:EQUATIONFIT,TZ_CORE_MID WATER-TO-AIR HP CLG COIL,TZ_CORE_MID WATER-TO-AIR HP CLG COIL INLET WATER NODE,TZ_CORE_MID WATER-TO-AIR HP CLG COIL OUTLET WATER NODE,Water Nodes
 Component Set,45,BRANCH,GROUND HX LOOP DEMAND BRANCH 35,COIL:HEATING:WATERTOAIRHEATPUMP:EQUATIONFIT,TZ_PERIMETER_TOP_ZN_3 WATER-TO-AIR HP HTG COIL,TZ_PERIMETER_TOP_ZN_3 WATER-TO-AIR HP HTG COIL INLET WATER NODE,TZ_PERIMETER_TOP_ZN_3 WATER-TO-AIR HP HTG COIL OUTLET WATER NODE,Water Nodes
 Component Set,46,BRANCH,GROUND HX LOOP DEMAND BRANCH 36,COIL:COOLING:WATERTOAIRHEATPUMP:EQUATIONFIT,TZ_PERIMETER_TOP_ZN_3 WATER-TO-AIR HP CLG COIL,TZ_PERIMETER_TOP_ZN_3 WATER-TO-AIR HP CLG COIL INLET WATER NODE,TZ_PERIMETER_TOP_ZN_3 WATER-TO-AIR HP CLG COIL OUTLET WATER NODE,Water Nodes
 Component Set,47,BRANCH,GROUND HX LOOP DEMAND BRANCH 37,COIL:HEATING:WATERTOAIRHEATPUMP:EQUATIONFIT,TZ_CORE_TOP WATER-TO-AIR HP HTG COIL,TZ_CORE_TOP WATER-TO-AIR HP HTG COIL INLET WATER NODE,TZ_CORE_TOP WATER-TO-AIR HP HTG COIL OUTLET WATER NODE,Water Nodes
 Component Set,48,BRANCH,GROUND HX LOOP DEMAND BRANCH 38,COIL:COOLING:WATERTOAIRHEATPUMP:EQUATIONFIT,TZ_CORE_TOP WATER-TO-AIR HP CLG COIL,TZ_CORE_TOP WATER-TO-AIR HP CLG COIL INLET WATER NODE,TZ_CORE_TOP WATER-TO-AIR HP CLG COIL OUTLET WATER NODE,Water Nodes
 Component Set,49,BRANCH,GROUND HX LOOP DEMAND BRANCH 39,COIL:HEATING:WATERTOAIRHEATPUMP:EQUATIONFIT,TZ_CORE_BOTTOM WATER-TO-AIR HP HTG COIL,TZ_CORE_BOTTOM WATER-TO-AIR HP HTG COIL INLET WATER NODE,TZ_CORE_BOTTOM WATER-TO-AIR HP HTG COIL OUTLET WATER NODE,Water Nodes
 Component Set,50,BRANCH,GROUND HX LOOP DEMAND BRANCH 40,COIL:COOLING:WATERTOAIRHEATPUMP:EQUATIONFIT,TZ_CORE_BOTTOM WATER-TO-AIR HP CLG COIL,TZ_CORE_BOTTOM WATER-TO-AIR HP CLG COIL INLET WATER NODE,TZ_CORE_BOTTOM WATER-TO-AIR HP CLG COIL OUTLET WATER NODE,Water Nodes
 Component Set,51,BRANCH,GROUND HX LOOP DEMAND BYPASS BRANCH,PIPE:ADIABATIC,GROUND HX LOOP DEMAND BYPASS PIPE,GROUND HX LOOP DEMAND BYPASS PIPE INLET NODE,GROUND HX LOOP DEMAND BYPASS PIPE OUTLET NODE,Pipe Nodes
 Component Set,52,BRANCH,GROUND HX LOOP DEMAND OUTLET BRANCH,PIPE:ADIABATIC,GROUND HX LOOP DEMAND OUTLET PIPE,GROUND HX LOOP DEMAND OUTLET PIPE NODE,GROUND HX LOOP DEMAND OUTLET NODE,Pipe Nodes
 Component Set,53,BRANCH,MAIN SERVICE WATER LOOP SUPPLY INLET BRANCH,PUMP:CONSTANTSPEED,SERVICE WATER LOOP PUMP,MAIN SERVICE WATER LOOP SUPPLY INLET NODE,SERVICE WATER LOOP PUMP OUTLET WATER NODE,Water Nodes
 Component Set,54,BRANCH,MAIN SERVICE WATER LOOP SUPPLY BRANCH 1,WATERHEATER:MIXED,100GAL NATURAL GAS WATER HEATER - 100KBTU/HR 0.802 THERM EFF 0.808 THERM EFF,100GAL NATURAL GAS WATER HEATER - 100KBTU/HR 0.802 THERM EFF SUPPLY INLET WATER NODE,100GAL NATURAL GAS WATER HEATER - 100KBTU/HR 0.802 THERM EFF SUPPLY OUTLET WATER NODE,Use Side Water Nodes
 Component Set,55,BRANCH,MAIN SERVICE WATER LOOP SUPPLY BRANCH 2,PIPE:ADIABATIC,PIPE ADIABATIC 1,PIPE ADIABATIC 1 INLET WATER NODE,PIPE ADIABATIC 1 OUTLET WATER NODE,Pipe Nodes
 Component Set,56,BRANCH,MAIN SERVICE WATER LOOP SUPPLY OUTLET BRANCH,PIPE:ADIABATIC,PIPE ADIABATIC 3,PIPE ADIABATIC 3 INLET WATER NODE,MAIN SERVICE WATER LOOP SUPPLY OUTLET NODE,Pipe Nodes
 Component Set,57,BRANCH,MAIN SERVICE WATER LOOP DEMAND INLET BRANCH,PIPE:ADIABATIC,PIPE ADIABATIC 4,MAIN SERVICE WATER LOOP DEMAND INLET NODE,PIPE ADIABATIC 4 OUTLET WATER NODE,Pipe Nodes
 Component Set,58,BRANCH,MAIN SERVICE WATER LOOP DEMAND BRANCH 1,PIPE:ADIABATIC,PIPE ADIABATIC 2,PIPE ADIABATIC 2 INLET WATER NODE,PIPE ADIABATIC 2 OUTLET WATER NODE,Pipe Nodes
 Component Set,59,BRANCH,MAIN SERVICE WATER LOOP DEMAND BRANCH 2,WATERUSE:CONNECTIONS,WATER USE CONNECTIONS 1,WATER USE CONNECTIONS 1 INLET WATER NODE,WATER USE CONNECTIONS 1 OUTLET WATER NODE,DHW Nodes
 Component Set,60,BRANCH,MAIN SERVICE WATER LOOP DEMAND BRANCH 3,WATERUSE:CONNECTIONS,WATER USE CONNECTIONS 2,WATER USE CONNECTIONS 2 INLET WATER NODE,WATER USE CONNECTIONS 2 OUTLET WATER NODE,DHW Nodes
 Component Set,61,BRANCH,MAIN SERVICE WATER LOOP DEMAND BRANCH 4,WATERUSE:CONNECTIONS,WATER USE CONNECTIONS 3,WATER USE CONNECTIONS 3 INLET WATER NODE,WATER USE CONNECTIONS 3 OUTLET WATER NODE,DHW Nodes
 Component Set,62,BRANCH,MAIN SERVICE WATER LOOP DEMAND BRANCH 5,WATERUSE:CONNECTIONS,WATER USE CONNECTIONS 4,WATER USE CONNECTIONS 4 INLET WATER NODE,WATER USE CONNECTIONS 4 OUTLET WATER NODE,DHW Nodes
 Component Set,63,BRANCH,MAIN SERVICE WATER LOOP DEMAND BRANCH 6,WATERUSE:CONNECTIONS,WATER USE CONNECTIONS 5,WATER USE CONNECTIONS 5 INLET WATER NODE,WATER USE CONNECTIONS 5 OUTLET WATER NODE,DHW Nodes
 Component Set,64,BRANCH,MAIN SERVICE WATER LOOP DEMAND BRANCH 7,WATERUSE:CONNECTIONS,WATER USE CONNECTIONS 6,WATER USE CONNECTIONS 6 INLET WATER NODE,WATER USE CONNECTIONS 6 OUTLET WATER NODE,DHW Nodes
 Component Set,65,BRANCH,MAIN SERVICE WATER LOOP DEMAND BRANCH 8,WATERUSE:CONNECTIONS,WATER USE CONNECTIONS 7,WATER USE CONNECTIONS 7 INLET WATER NODE,WATER USE CONNECTIONS 7 OUTLET WATER NODE,DHW Nodes
 Component Set,66,BRANCH,MAIN SERVICE WATER LOOP DEMAND BRANCH 9,WATERUSE:CONNECTIONS,WATER USE CONNECTIONS 8,WATER USE CONNECTIONS 8 INLET WATER NODE,WATER USE CONNECTIONS 8 OUTLET WATER NODE,DHW Nodes
 Component Set,67,BRANCH,MAIN SERVICE WATER LOOP DEMAND BRANCH 10,WATERUSE:CONNECTIONS,WATER USE CONNECTIONS 9,WATER USE CONNECTIONS 9 INLET WATER NODE,WATER USE CONNECTIONS 9 OUTLET WATER NODE,DHW Nodes
 Component Set,68,BRANCH,MAIN SERVICE WATER LOOP DEMAND BRANCH 11,WATERUSE:CONNECTIONS,WATER USE CONNECTIONS 10,WATER USE CONNECTIONS 10 INLET WATER NODE,WATER USE CONNECTIONS 10 OUTLET WATER NODE,DHW Nodes
 Component Set,69,BRANCH,MAIN SERVICE WATER LOOP DEMAND BRANCH 12,WATERUSE:CONNECTIONS,WATER USE CONNECTIONS 11,WATER USE CONNECTIONS 11 INLET WATER NODE,WATER USE CONNECTIONS 11 OUTLET WATER NODE,DHW Nodes
 Component Set,70,BRANCH,MAIN SERVICE WATER LOOP DEMAND BRANCH 13,WATERUSE:CONNECTIONS,WATER USE CONNECTIONS 12,WATER USE CONNECTIONS 12 INLET WATER NODE,WATER USE CONNECTIONS 12 OUTLET WATER NODE,DHW Nodes
 Component Set,71,BRANCH,MAIN SERVICE WATER LOOP DEMAND BRANCH 14,WATERUSE:CONNECTIONS,WATER USE CONNECTIONS 13,WATER USE CONNECTIONS 13 INLET WATER NODE,WATER USE CONNECTIONS 13 OUTLET WATER NODE,DHW Nodes
 Component Set,72,BRANCH,MAIN SERVICE WATER LOOP DEMAND BRANCH 15,WATERUSE:CONNECTIONS,WATER USE CONNECTIONS 14,WATER USE CONNECTIONS 14 INLET WATER NODE,WATER USE CONNECTIONS 14 OUTLET WATER NODE,DHW Nodes
 Component Set,73,BRANCH,MAIN SERVICE WATER LOOP DEMAND BRANCH 16,WATERUSE:CONNECTIONS,WATER USE CONNECTIONS 15,WATER USE CONNECTIONS 15 INLET WATER NODE,WATER USE CONNECTIONS 15 OUTLET WATER NODE,DHW Nodes
 Component Set,74,BRANCH,MAIN SERVICE WATER LOOP DEMAND BYPASS BRANCH,PIPE:ADIABATIC,MAIN SERVICE WATER LOOP DEMAND BYPASS PIPE,MAIN SERVICE WATER LOOP DEMAND BYPASS PIPE INLET NODE,MAIN SERVICE WATER LOOP DEMAND BYPASS PIPE OUTLET NODE,Pipe Nodes
 Component Set,75,BRANCH,MAIN SERVICE WATER LOOP DEMAND OUTLET BRANCH,PIPE:ADIABATIC,PIPE ADIABATIC 5,PIPE ADIABATIC 5 INLET WATER NODE,MAIN SERVICE WATER LOOP DEMAND OUTLET NODE,Pipe Nodes
 Component Set,76,ZONEHVAC:AIRDISTRIBUTIONUNIT,ADU TZ_CORE_BOTTOM AIR TERMINAL,AIRTERMINAL:SINGLEDUCT:CONSTANTVOLUME:NOREHEAT,TZ_CORE_BOTTOM AIR TERMINAL,TZ_CORE_BOTTOM AIR TERMINAL INLET AIR NODE,TZ_CORE_BOTTOM AIR TERMINAL OUTLET AIR NODE,Air Nodes
 Component Set,77,ZONEHVAC:AIRDISTRIBUTIONUNIT,ADU TZ_CORE_GROUND AIR TERMINAL,AIRTERMINAL:SINGLEDUCT:CONSTANTVOLUME:NOREHEAT,TZ_CORE_GROUND AIR TERMINAL,TZ_CORE_GROUND AIR TERMINAL INLET AIR NODE,TZ_CORE_GROUND AIR TERMINAL OUTLET AIR NODE,Air Nodes
 Component Set,78,ZONEHVAC:AIRDISTRIBUTIONUNIT,ADU TZ_CORE_MID AIR TERMINAL,AIRTERMINAL:SINGLEDUCT:CONSTANTVOLUME:NOREHEAT,TZ_CORE_MID AIR TERMINAL,TZ_CORE_MID AIR TERMINAL INLET AIR NODE,TZ_CORE_MID AIR TERMINAL OUTLET AIR NODE,Air Nodes
 Component Set,79,ZONEHVAC:AIRDISTRIBUTIONUNIT,ADU TZ_CORE_TOP AIR TERMINAL,AIRTERMINAL:SINGLEDUCT:CONSTANTVOLUME:NOREHEAT,TZ_CORE_TOP AIR TERMINAL,TZ_CORE_TOP AIR TERMINAL INLET AIR NODE,TZ_CORE_TOP AIR TERMINAL OUTLET AIR NODE,Air Nodes
 Component Set,80,ZONEHVAC:AIRDISTRIBUTIONUNIT,ADU TZ_PERIMETER_BOT_ZN_1 AIR TERMINAL,AIRTERMINAL:SINGLEDUCT:CONSTANTVOLUME:NOREHEAT,TZ_PERIMETER_BOT_ZN_1 AIR TERMINAL,TZ_PERIMETER_BOT_ZN_1 AIR TERMINAL INLET AIR NODE,TZ_PERIMETER_BOT_ZN_1 AIR TERMINAL OUTLET AIR NODE,Air Nodes
 Component Set,81,ZONEHVAC:AIRDISTRIBUTIONUNIT,ADU TZ_PERIMETER_BOT_ZN_2 AIR TERMINAL,AIRTERMINAL:SINGLEDUCT:CONSTANTVOLUME:NOREHEAT,TZ_PERIMETER_BOT_ZN_2 AIR TERMINAL,TZ_PERIMETER_BOT_ZN_2 AIR TERMINAL INLET AIR NODE,TZ_PERIMETER_BOT_ZN_2 AIR TERMINAL OUTLET AIR NODE,Air Nodes
 Component Set,82,ZONEHVAC:AIRDISTRIBUTIONUNIT,ADU TZ_PERIMETER_BOT_ZN_3 AIR TERMINAL,AIRTERMINAL:SINGLEDUCT:CONSTANTVOLUME:NOREHEAT,TZ_PERIMETER_BOT_ZN_3 AIR TERMINAL,TZ_PERIMETER_BOT_ZN_3 AIR TERMINAL INLET AIR NODE,TZ_PERIMETER_BOT_ZN_3 AIR TERMINAL OUTLET AIR NODE,Air Nodes
 Component Set,83,ZONEHVAC:AIRDISTRIBUTIONUNIT,ADU TZ_PERIMETER_BOT_ZN_4 AIR TERMINAL,AIRTERMINAL:SINGLEDUCT:CONSTANTVOLUME:NOREHEAT,TZ_PERIMETER_BOT_ZN_4 AIR TERMINAL,TZ_PERIMETER_BOT_ZN_4 AIR TERMINAL INLET AIR NODE,TZ_PERIMETER_BOT_ZN_4 AIR TERMINAL OUTLET AIR NODE,Air Nodes
 Component Set,84,ZONEHVAC:AIRDISTRIBUTIONUNIT,ADU TZ_PERIMETER_GROUND_ZN_1 AIR TERMINAL,AIRTERMINAL:SINGLEDUCT:CONSTANTVOLUME:NOREHEAT,TZ_PERIMETER_GROUND_ZN_1 AIR TERMINAL,TZ_PERIMETER_GROUND_ZN_1 AIR TERMINAL INLET AIR NODE,TZ_PERIMETER_GROUND_ZN_1 AIR TERMINAL OUTLET AIR NODE,Air Nodes
 Component Set,85,ZONEHVAC:AIRDISTRIBUTIONUNIT,ADU TZ_PERIMETER_GROUND_ZN_2 AIR TERMINAL,AIRTERMINAL:SINGLEDUCT:CONSTANTVOLUME:NOREHEAT,TZ_PERIMETER_GROUND_ZN_2 AIR TERMINAL,TZ_PERIMETER_GROUND_ZN_2 AIR TERMINAL INLET AIR NODE,TZ_PERIMETER_GROUND_ZN_2 AIR TERMINAL OUTLET AIR NODE,Air Nodes
 Component Set,86,ZONEHVAC:AIRDISTRIBUTIONUNIT,ADU TZ_PERIMETER_GROUND_ZN_3 AIR TERMINAL,AIRTERMINAL:SINGLEDUCT:CONSTANTVOLUME:NOREHEAT,TZ_PERIMETER_GROUND_ZN_3 AIR TERMINAL,TZ_PERIMETER_GROUND_ZN_3 AIR TERMINAL INLET AIR NODE,TZ_PERIMETER_GROUND_ZN_3 AIR TERMINAL OUTLET AIR NODE,Air Nodes
 Component Set,87,ZONEHVAC:AIRDISTRIBUTIONUNIT,ADU TZ_PERIMETER_GROUND_ZN_4 AIR TERMINAL,AIRTERMINAL:SINGLEDUCT:CONSTANTVOLUME:NOREHEAT,TZ_PERIMETER_GROUND_ZN_4 AIR TERMINAL,TZ_PERIMETER_GROUND_ZN_4 AIR TERMINAL INLET AIR NODE,TZ_PERIMETER_GROUND_ZN_4 AIR TERMINAL OUTLET AIR NODE,Air Nodes
 Component Set,88,ZONEHVAC:AIRDISTRIBUTIONUNIT,ADU TZ_PERIMETER_MID_ZN_1 AIR TERMINAL,AIRTERMINAL:SINGLEDUCT:CONSTANTVOLUME:NOREHEAT,TZ_PERIMETER_MID_ZN_1 AIR TERMINAL,TZ_PERIMETER_MID_ZN_1 AIR TERMINAL INLET AIR NODE,TZ_PERIMETER_MID_ZN_1 AIR TERMINAL OUTLET AIR NODE,Air Nodes
 Component Set,89,ZONEHVAC:AIRDISTRIBUTIONUNIT,ADU TZ_PERIMETER_MID_ZN_2 AIR TERMINAL,AIRTERMINAL:SINGLEDUCT:CONSTANTVOLUME:NOREHEAT,TZ_PERIMETER_MID_ZN_2 AIR TERMINAL,TZ_PERIMETER_MID_ZN_2 AIR TERMINAL INLET AIR NODE,TZ_PERIMETER_MID_ZN_2 AIR TERMINAL OUTLET AIR NODE,Air Nodes
 Component Set,90,ZONEHVAC:AIRDISTRIBUTIONUNIT,ADU TZ_PERIMETER_MID_ZN_3 AIR TERMINAL,AIRTERMINAL:SINGLEDUCT:CONSTANTVOLUME:NOREHEAT,TZ_PERIMETER_MID_ZN_3 AIR TERMINAL,TZ_PERIMETER_MID_ZN_3 AIR TERMINAL INLET AIR NODE,TZ_PERIMETER_MID_ZN_3 AIR TERMINAL OUTLET AIR NODE,Air Nodes
 Component Set,91,ZONEHVAC:AIRDISTRIBUTIONUNIT,ADU TZ_PERIMETER_MID_ZN_4 AIR TERMINAL,AIRTERMINAL:SINGLEDUCT:CONSTANTVOLUME:NOREHEAT,TZ_PERIMETER_MID_ZN_4 AIR TERMINAL,TZ_PERIMETER_MID_ZN_4 AIR TERMINAL INLET AIR NODE,TZ_PERIMETER_MID_ZN_4 AIR TERMINAL OUTLET AIR NODE,Air Nodes
 Component Set,92,ZONEHVAC:AIRDISTRIBUTIONUNIT,ADU TZ_PERIMETER_TOP_ZN_1 AIR TERMINAL,AIRTERMINAL:SINGLEDUCT:CONSTANTVOLUME:NOREHEAT,TZ_PERIMETER_TOP_ZN_1 AIR TERMINAL,TZ_PERIMETER_TOP_ZN_1 AIR TERMINAL INLET AIR NODE,TZ_PERIMETER_TOP_ZN_1 AIR TERMINAL OUTLET AIR NODE,Air Nodes
 Component Set,93,ZONEHVAC:AIRDISTRIBUTIONUNIT,ADU TZ_PERIMETER_TOP_ZN_2 AIR TERMINAL,AIRTERMINAL:SINGLEDUCT:CONSTANTVOLUME:NOREHEAT,TZ_PERIMETER_TOP_ZN_2 AIR TERMINAL,TZ_PERIMETER_TOP_ZN_2 AIR TERMINAL INLET AIR NODE,TZ_PERIMETER_TOP_ZN_2 AIR TERMINAL OUTLET AIR NODE,Air Nodes
 Component Set,94,ZONEHVAC:AIRDISTRIBUTIONUNIT,ADU TZ_PERIMETER_TOP_ZN_3 AIR TERMINAL,AIRTERMINAL:SINGLEDUCT:CONSTANTVOLUME:NOREHEAT,TZ_PERIMETER_TOP_ZN_3 AIR TERMINAL,TZ_PERIMETER_TOP_ZN_3 AIR TERMINAL INLET AIR NODE,TZ_PERIMETER_TOP_ZN_3 AIR TERMINAL OUTLET AIR NODE,Air Nodes
 Component Set,95,ZONEHVAC:AIRDISTRIBUTIONUNIT,ADU TZ_PERIMETER_TOP_ZN_4 AIR TERMINAL,AIRTERMINAL:SINGLEDUCT:CONSTANTVOLUME:NOREHEAT,TZ_PERIMETER_TOP_ZN_4 AIR TERMINAL,TZ_PERIMETER_TOP_ZN_4 AIR TERMINAL INLET AIR NODE,TZ_PERIMETER_TOP_ZN_4 AIR TERMINAL OUTLET AIR NODE,Air Nodes
 Component Set,96,ZONEHVAC:WATERTOAIRHEATPUMP,TZ_CORE_BOTTOM WSHP,FAN:ONOFF,TZ_CORE_BOTTOM WSHP FAN,TZ_CORE_BOTTOM WSHP INLET AIR NODE,TZ_CORE_BOTTOM WSHP FAN OUTLET NODE,Air Nodes
 Component Set,97,ZONEHVAC:WATERTOAIRHEATPUMP,TZ_CORE_GROUND WSHP,FAN:ONOFF,TZ_CORE_GROUND WSHP FAN,TZ_CORE_GROUND WSHP INLET AIR NODE,TZ_CORE_GROUND WSHP FAN OUTLET NODE,Air Nodes
 Component Set,98,ZONEHVAC:WATERTOAIRHEATPUMP,TZ_CORE_MID WSHP,FAN:ONOFF,TZ_CORE_MID WSHP FAN,TZ_CORE_MID WSHP INLET AIR NODE,TZ_CORE_MID WSHP FAN OUTLET NODE,Air Nodes
 Component Set,99,ZONEHVAC:WATERTOAIRHEATPUMP,TZ_CORE_TOP WSHP,FAN:ONOFF,TZ_CORE_TOP WSHP FAN,TZ_CORE_TOP WSHP INLET AIR NODE,TZ_CORE_TOP WSHP FAN OUTLET NODE,Air Nodes
 Component Set,100,ZONEHVAC:WATERTOAIRHEATPUMP,TZ_PERIMETER_BOT_ZN_1 WSHP,FAN:ONOFF,TZ_PERIMETER_BOT_ZN_1 WSHP FAN,TZ_PERIMETER_BOT_ZN_1 WSHP INLET AIR NODE,TZ_PERIMETER_BOT_ZN_1 WSHP FAN OUTLET NODE,Air Nodes
 Component Set,101,ZONEHVAC:WATERTOAIRHEATPUMP,TZ_PERIMETER_BOT_ZN_2 WSHP,FAN:ONOFF,TZ_PERIMETER_BOT_ZN_2 WSHP FAN,TZ_PERIMETER_BOT_ZN_2 WSHP INLET AIR NODE,TZ_PERIMETER_BOT_ZN_2 WSHP FAN OUTLET NODE,Air Nodes
 Component Set,102,ZONEHVAC:WATERTOAIRHEATPUMP,TZ_PERIMETER_BOT_ZN_3 WSHP,FAN:ONOFF,TZ_PERIMETER_BOT_ZN_3 WSHP FAN,TZ_PERIMETER_BOT_ZN_3 WSHP INLET AIR NODE,TZ_PERIMETER_BOT_ZN_3 WSHP FAN OUTLET NODE,Air Nodes
 Component Set,103,ZONEHVAC:WATERTOAIRHEATPUMP,TZ_PERIMETER_BOT_ZN_4 WSHP,FAN:ONOFF,TZ_PERIMETER_BOT_ZN_4 WSHP FAN,TZ_PERIMETER_BOT_ZN_4 WSHP INLET AIR NODE,TZ_PERIMETER_BOT_ZN_4 WSHP FAN OUTLET NODE,Air Nodes
 Component Set,104,ZONEHVAC:WATERTOAIRHEATPUMP,TZ_PERIMETER_GROUND_ZN_1 WSHP,FAN:ONOFF,TZ_PERIMETER_GROUND_ZN_1 WSHP FAN,TZ_PERIMETER_GROUND_ZN_1 WSHP INLET AIR NODE,TZ_PERIMETER_GROUND_ZN_1 WSHP FAN OUTLET NODE,Air Nodes
 Component Set,105,ZONEHVAC:WATERTOAIRHEATPUMP,TZ_PERIMETER_GROUND_ZN_2 WSHP,FAN:ONOFF,TZ_PERIMETER_GROUND_ZN_2 WSHP FAN,TZ_PERIMETER_GROUND_ZN_2 WSHP INLET AIR NODE,TZ_PERIMETER_GROUND_ZN_2 WSHP FAN OUTLET NODE,Air Nodes
 Component Set,106,ZONEHVAC:WATERTOAIRHEATPUMP,TZ_PERIMETER_GROUND_ZN_3 WSHP,FAN:ONOFF,TZ_PERIMETER_GROUND_ZN_3 WSHP FAN,TZ_PERIMETER_GROUND_ZN_3 WSHP INLET AIR NODE,TZ_PERIMETER_GROUND_ZN_3 WSHP FAN OUTLET NODE,Air Nodes
 Component Set,107,ZONEHVAC:WATERTOAIRHEATPUMP,TZ_PERIMETER_GROUND_ZN_4 WSHP,FAN:ONOFF,TZ_PERIMETER_GROUND_ZN_4 WSHP FAN,TZ_PERIMETER_GROUND_ZN_4 WSHP INLET AIR NODE,TZ_PERIMETER_GROUND_ZN_4 WSHP FAN OUTLET NODE,Air Nodes
 Component Set,108,ZONEHVAC:WATERTOAIRHEATPUMP,TZ_PERIMETER_MID_ZN_1 WSHP,FAN:ONOFF,TZ_PERIMETER_MID_ZN_1 WSHP FAN,TZ_PERIMETER_MID_ZN_1 WSHP INLET AIR NODE,TZ_PERIMETER_MID_ZN_1 WSHP FAN OUTLET NODE,Air Nodes
 Component Set,109,ZONEHVAC:WATERTOAIRHEATPUMP,TZ_PERIMETER_MID_ZN_2 WSHP,FAN:ONOFF,TZ_PERIMETER_MID_ZN_2 WSHP FAN,TZ_PERIMETER_MID_ZN_2 WSHP INLET AIR NODE,TZ_PERIMETER_MID_ZN_2 WSHP FAN OUTLET NODE,Air Nodes
 Component Set,110,ZONEHVAC:WATERTOAIRHEATPUMP,TZ_PERIMETER_MID_ZN_3 WSHP,FAN:ONOFF,TZ_PERIMETER_MID_ZN_3 WSHP FAN,TZ_PERIMETER_MID_ZN_3 WSHP INLET AIR NODE,TZ_PERIMETER_MID_ZN_3 WSHP FAN OUTLET NODE,Air Nodes
 Component Set,111,ZONEHVAC:WATERTOAIRHEATPUMP,TZ_PERIMETER_MID_ZN_4 WSHP,FAN:ONOFF,TZ_PERIMETER_MID_ZN_4 WSHP FAN,TZ_PERIMETER_MID_ZN_4 WSHP INLET AIR NODE,TZ_PERIMETER_MID_ZN_4 WSHP FAN OUTLET NODE,Air Nodes
 Component Set,112,ZONEHVAC:WATERTOAIRHEATPUMP,TZ_PERIMETER_TOP_ZN_1 WSHP,FAN:ONOFF,TZ_PERIMETER_TOP_ZN_1 WSHP FAN,TZ_PERIMETER_TOP_ZN_1 WSHP INLET AIR NODE,TZ_PERIMETER_TOP_ZN_1 WSHP FAN OUTLET NODE,Air Nodes
 Component Set,113,ZONEHVAC:WATERTOAIRHEATPUMP,TZ_PERIMETER_TOP_ZN_2 WSHP,FAN:ONOFF,TZ_PERIMETER_TOP_ZN_2 WSHP FAN,TZ_PERIMETER_TOP_ZN_2 WSHP INLET AIR NODE,TZ_PERIMETER_TOP_ZN_2 WSHP FAN OUTLET NODE,Air Nodes
 Component Set,114,ZONEHVAC:WATERTOAIRHEATPUMP,TZ_PERIMETER_TOP_ZN_3 WSHP,FAN:ONOFF,TZ_PERIMETER_TOP_ZN_3 WSHP FAN,TZ_PERIMETER_TOP_ZN_3 WSHP INLET AIR NODE,TZ_PERIMETER_TOP_ZN_3 WSHP FAN OUTLET NODE,Air Nodes
 Component Set,115,ZONEHVAC:WATERTOAIRHEATPUMP,TZ_PERIMETER_TOP_ZN_4 WSHP,FAN:ONOFF,TZ_PERIMETER_TOP_ZN_4 WSHP FAN,TZ_PERIMETER_TOP_ZN_4 WSHP INLET AIR NODE,TZ_PERIMETER_TOP_ZN_4 WSHP FAN OUTLET NODE,Air Nodes
 Component Set,116,ZONEHVAC:WATERTOAIRHEATPUMP,TZ_CORE_BOTTOM WSHP,COIL:COOLING:WATERTOAIRHEATPUMP:EQUATIONFIT,TZ_CORE_BOTTOM WATER-TO-AIR HP CLG COIL,TZ_CORE_BOTTOM WSHP FAN OUTLET NODE,TZ_CORE_BOTTOM WSHP COOLING COIL OUTLET NODE,Air Nodes
 Component Set,117,ZONEHVAC:WATERTOAIRHEATPUMP,TZ_CORE_GROUND WSHP,COIL:COOLING:WATERTOAIRHEATPUMP:EQUATIONFIT,TZ_CORE_GROUND WATER-TO-AIR HP CLG COIL,TZ_CORE_GROUND WSHP FAN OUTLET NODE,TZ_CORE_GROUND WSHP COOLING COIL OUTLET NODE,Air Nodes
 Component Set,118,ZONEHVAC:WATERTOAIRHEATPUMP,TZ_CORE_MID WSHP,COIL:COOLING:WATERTOAIRHEATPUMP:EQUATIONFIT,TZ_CORE_MID WATER-TO-AIR HP CLG COIL,TZ_CORE_MID WSHP FAN OUTLET NODE,TZ_CORE_MID WSHP COOLING COIL OUTLET NODE,Air Nodes
[...]
 Non-Parent Node Connection,TZ_PERIMETER_GROUND_ZN_2 WSHP COOLING COIL OUTLET NODE,COIL:HEATING:WATERTOAIRHEATPUMP:EQUATIONFIT,TZ_PERIMETER_GROUND_ZN_2 WATER-TO-AIR HP HTG COIL,Inlet,1
 Non-Parent Node Connection,TZ_PERIMETER_GROUND_ZN_2 WSHP HEATING COIL OUTLET NODE,COIL:HEATING:WATERTOAIRHEATPUMP:EQUATIONFIT,TZ_PERIMETER_GROUND_ZN_2 WATER-TO-AIR HP HTG COIL,Outlet,1
 Non-Parent Node Connection,TZ_PERIMETER_GROUND_ZN_3 WATER-TO-AIR HP HTG COIL INLET WATER NODE,COIL:HEATING:WATERTOAIRHEATPUMP:EQUATIONFIT,TZ_PERIMETER_GROUND_ZN_3 WATER-TO-AIR HP HTG COIL,Inlet,2
 Non-Parent Node Connection,TZ_PERIMETER_GROUND_ZN_3 WATER-TO-AIR HP HTG COIL OUTLET WATER NODE,COIL:HEATING:WATERTOAIRHEATPUMP:EQUATIONFIT,TZ_PERIMETER_GROUND_ZN_3 WATER-TO-AIR HP HTG COIL,Outlet,2
 Non-Parent Node Connection,TZ_PERIMETER_GROUND_ZN_3 WSHP COOLING COIL OUTLET NODE,COIL:HEATING:WATERTOAIRHEATPUMP:EQUATIONFIT,TZ_PERIMETER_GROUND_ZN_3 WATER-TO-AIR HP HTG COIL,Inlet,1
 Non-Parent Node Connection,TZ_PERIMETER_GROUND_ZN_3 WSHP HEATING COIL OUTLET NODE,COIL:HEATING:WATERTOAIRHEATPUMP:EQUATIONFIT,TZ_PERIMETER_GROUND_ZN_3 WATER-TO-AIR HP HTG COIL,Outlet,1
 Non-Parent Node Connection,TZ_PERIMETER_GROUND_ZN_4 WATER-TO-AIR HP HTG COIL INLET WATER NODE,COIL:HEATING:WATERTOAIRHEATPUMP:EQUATIONFIT,TZ_PERIMETER_GROUND_ZN_4 WATER-TO-AIR HP HTG COIL,Inlet,2
 Non-Parent Node Connection,TZ_PERIMETER_GROUND_ZN_4 WATER-TO-AIR HP HTG COIL OUTLET WATER NODE,COIL:HEATING:WATERTOAIRHEATPUMP:EQUATIONFIT,TZ_PERIMETER_GROUND_ZN_4 WATER-TO-AIR HP HTG COIL,Outlet,2
 Non-Parent Node Connection,TZ_PERIMETER_GROUND_ZN_4 WSHP COOLING COIL OUTLET NODE,COIL:HEATING:WATERTOAIRHEATPUMP:EQUATIONFIT,TZ_PERIMETER_GROUND_ZN_4 WATER-TO-AIR HP HTG COIL,Inlet,1
 Non-Parent Node Connection,TZ_PERIMETER_GROUND_ZN_4 WSHP HEATING COIL OUTLET NODE,COIL:HEATING:WATERTOAIRHEATPUMP:EQUATIONFIT,TZ_PERIMETER_GROUND_ZN_4 WATER-TO-AIR HP HTG COIL,Outlet,1
 Non-Parent Node Connection,TZ_PERIMETER_MID_ZN_1 WATER-TO-AIR HP HTG COIL INLET WATER NODE,COIL:HEATING:WATERTOAIRHEATPUMP:EQUATIONFIT,TZ_PERIMETER_MID_ZN_1 WATER-TO-AIR HP HTG COIL,Inlet,2
 Non-Parent Node Connection,TZ_PERIMETER_MID_ZN_1 WATER-TO-AIR HP HTG COIL OUTLET WATER NODE,COIL:HEATING:WATERTOAIRHEATPUMP:EQUATIONFIT,TZ_PERIMETER_MID_ZN_1 WATER-TO-AIR HP HTG COIL,Outlet,2
 Non-Parent Node Connection,TZ_PERIMETER_MID_ZN_1 WSHP COOLING COIL OUTLET NODE,COIL:HEATING:WATERTOAIRHEATPUMP:EQUATIONFIT,TZ_PERIMETER_MID_ZN_1 WATER-TO-AIR HP HTG COIL,Inlet,1
 Non-Parent Node Connection,TZ_PERIMETER_MID_ZN_1 WSHP HEATING COIL OUTLET NODE,COIL:HEATING:WATERTOAIRHEATPUMP:EQUATIONFIT,TZ_PERIMETER_MID_ZN_1 WATER-TO-AIR HP HTG COIL,Outlet,1
 Non-Parent Node Connection,TZ_PERIMETER_MID_ZN_2 WATER-TO-AIR HP HTG COIL INLET WATER NODE,COIL:HEATING:WATERTOAIRHEATPUMP:EQUATIONFIT,TZ_PERIMETER_MID_ZN_2 WATER-TO-AIR HP HTG COIL,Inlet,2
 Non-Parent Node Connection,TZ_PERIMETER_MID_ZN_2 WATER-TO-AIR HP HTG COIL OUTLET WATER NODE,COIL:HEATING:WATERTOAIRHEATPUMP:EQUATIONFIT,TZ_PERIMETER_MID_ZN_2 WATER-TO-AIR HP HTG COIL,Outlet,2
 Non-Parent Node Connection,TZ_PERIMETER_MID_ZN_2 WSHP COOLING COIL OUTLET NODE,COIL:HEATING:WATERTOAIRHEATPUMP:EQUATIONFIT,TZ_PERIMETER_MID_ZN_2 WATER-TO-AIR HP HTG COIL,Inlet,1
 Non-Parent Node Connection,TZ_PERIMETER_MID_ZN_2 WSHP HEATING COIL OUTLET NODE,COIL:HEATING:WATERTOAIRHEATPUMP:EQUATIONFIT,TZ_PERIMETER_MID_ZN_2 WATER-TO-AIR HP HTG COIL,Outlet,1
 Non-Parent Node Connection,TZ_PERIMETER_MID_ZN_3 WATER-TO-AIR HP HTG COIL INLET WATER NODE,COIL:HEATING:WATERTOAIRHEATPUMP:EQUATIONFIT,TZ_PERIMETER_MID_ZN_3 WATER-TO-AIR HP HTG COIL,Inlet,2
 Non-Parent Node Connection,TZ_PERIMETER_MID_ZN_3 WATER-TO-AIR HP HTG COIL OUTLET WATER NODE,COIL:HEATING:WATERTOAIRHEATPUMP:EQUATIONFIT,TZ_PERIMETER_MID_ZN_3 WATER-TO-AIR HP HTG COIL,Outlet,2
 Non-Parent Node Connection,TZ_PERIMETER_MID_ZN_3 WSHP COOLING COIL OUTLET NODE,COIL:HEATING:WATERTOAIRHEATPUMP:EQUATIONFIT,TZ_PERIMETER_MID_ZN_3 WATER-TO-AIR HP HTG COIL,Inlet,1
 Non-Parent Node Connection,TZ_PERIMETER_MID_ZN_3 WSHP HEATING COIL OUTLET NODE,COIL:HEATING:WATERTOAIRHEATPUMP:EQUATIONFIT,TZ_PERIMETER_MID_ZN_3 WATER-TO-AIR HP HTG COIL,Outlet,1
 Non-Parent Node Connection,TZ_PERIMETER_MID_ZN_4 WATER-TO-AIR HP HTG COIL INLET WATER NODE,COIL:HEATING:WATERTOAIRHEATPUMP:EQUATIONFIT,TZ_PERIMETER_MID_ZN_4 WATER-TO-AIR HP HTG COIL,Inlet,2
 Non-Parent Node Connection,TZ_PERIMETER_MID_ZN_4 WATER-TO-AIR HP HTG COIL OUTLET WATER NODE,COIL:HEATING:WATERTOAIRHEATPUMP:EQUATIONFIT,TZ_PERIMETER_MID_ZN_4 WATER-TO-AIR HP HTG COIL,Outlet,2
 Non-Parent Node Connection,TZ_PERIMETER_MID_ZN_4 WSHP COOLING COIL OUTLET NODE,COIL:HEATING:WATERTOAIRHEATPUMP:EQUATIONFIT,TZ_PERIMETER_MID_ZN_4 WATER-TO-AIR HP HTG COIL,Inlet,1
 Non-Parent Node Connection,TZ_PERIMETER_MID_ZN_4 WSHP HEATING COIL OUTLET NODE,COIL:HEATING:WATERTOAIRHEATPUMP:EQUATIONFIT,TZ_PERIMETER_MID_ZN_4 WATER-TO-AIR HP HTG COIL,Outlet,1
 Non-Parent Node Connection,TZ_PERIMETER_TOP_ZN_1 WATER-TO-AIR HP HTG COIL INLET WATER NODE,COIL:HEATING:WATERTOAIRHEATPUMP:EQUATIONFIT,TZ_PERIMETER_TOP_ZN_1 WATER-TO-AIR HP HTG COIL,Inlet,2
 Non-Parent Node Connection,TZ_PERIMETER_TOP_ZN_1 WATER-TO-AIR HP HTG COIL OUTLET WATER NODE,COIL:HEATING:WATERTOAIRHEATPUMP:EQUATIONFIT,TZ_PERIMETER_TOP_ZN_1 WATER-TO-AIR HP HTG COIL,Outlet,2
 Non-Parent Node Connection,TZ_PERIMETER_TOP_ZN_1 WSHP COOLING COIL OUTLET NODE,COIL:HEATING:WATERTOAIRHEATPUMP:EQUATIONFIT,TZ_PERIMETER_TOP_ZN_1 WATER-TO-AIR HP HTG COIL,Inlet,1
 Non-Parent Node Connection,TZ_PERIMETER_TOP_ZN_1 WSHP HEATING COIL OUTLET NODE,COIL:HEATING:WATERTOAIRHEATPUMP:EQUATIONFIT,TZ_PERIMETER_TOP_ZN_1 WATER-TO-AIR HP HTG COIL,Outlet,1
 Non-Parent Node Connection,TZ_PERIMETER_TOP_ZN_2 WATER-TO-AIR HP HTG COIL INLET WATER NODE,COIL:HEATING:WATERTOAIRHEATPUMP:EQUATIONFIT,TZ_PERIMETER_TOP_ZN_2 WATER-TO-AIR HP HTG COIL,Inlet,2
 Non-Parent Node Connection,TZ_PERIMETER_TOP_ZN_2 WATER-TO-AIR HP HTG COIL OUTLET WATER NODE,COIL:HEATING:WATERTOAIRHEATPUMP:EQUATIONFIT,TZ_PERIMETER_TOP_ZN_2 WATER-TO-AIR HP HTG COIL,Outlet,2
 Non-Parent Node Connection,TZ_PERIMETER_TOP_ZN_2 WSHP COOLING COIL OUTLET NODE,COIL:HEATING:WATERTOAIRHEATPUMP:EQUATIONFIT,TZ_PERIMETER_TOP_ZN_2 WATER-TO-AIR HP HTG COIL,Inlet,1
 Non-Parent Node Connection,TZ_PERIMETER_TOP_ZN_2 WSHP HEATING COIL OUTLET NODE,COIL:HEATING:WATERTOAIRHEATPUMP:EQUATIONFIT,TZ_PERIMETER_TOP_ZN_2 WATER-TO-AIR HP HTG COIL,Outlet,1
 Non-Parent Node Connection,TZ_PERIMETER_TOP_ZN_3 WATER-TO-AIR HP HTG COIL INLET WATER NODE,COIL:HEATING:WATERTOAIRHEATPUMP:EQUATIONFIT,TZ_PERIMETER_TOP_ZN_3 WATER-TO-AIR HP HTG COIL,Inlet,2
 Non-Parent Node Connection,TZ_PERIMETER_TOP_ZN_3 WATER-TO-AIR HP HTG COIL OUTLET WATER NODE,COIL:HEATING:WATERTOAIRHEATPUMP:EQUATIONFIT,TZ_PERIMETER_TOP_ZN_3 WATER-TO-AIR HP HTG COIL,Outlet,2
 Non-Parent Node Connection,TZ_PERIMETER_TOP_ZN_3 WSHP COOLING COIL OUTLET NODE,COIL:HEATING:WATERTOAIRHEATPUMP:EQUATIONFIT,TZ_PERIMETER_TOP_ZN_3 WATER-TO-AIR HP HTG COIL,Inlet,1
 Non-Parent Node Connection,TZ_PERIMETER_TOP_ZN_3 WSHP HEATING COIL OUTLET NODE,COIL:HEATING:WATERTOAIRHEATPUMP:EQUATIONFIT,TZ_PERIMETER_TOP_ZN_3 WATER-TO-AIR HP HTG COIL,Outlet,1
 Non-Parent Node Connection,TZ_PERIMETER_TOP_ZN_4 WATER-TO-AIR HP HTG COIL INLET WATER NODE,COIL:HEATING:WATERTOAIRHEATPUMP:EQUATIONFIT,TZ_PERIMETER_TOP_ZN_4 WATER-TO-AIR HP HTG COIL,Inlet,2
 Non-Parent Node Connection,TZ_PERIMETER_TOP_ZN_4 WATER-TO-AIR HP HTG COIL OUTLET WATER NODE,COIL:HEATING:WATERTOAIRHEATPUMP:EQUATIONFIT,TZ_PERIMETER_TOP_ZN_4 WATER-TO-AIR HP HTG COIL,Outlet,2
 Non-Parent Node Connection,TZ_PERIMETER_TOP_ZN_4 WSHP COOLING COIL OUTLET NODE,COIL:HEATING:WATERTOAIRHEATPUMP:EQUATIONFIT,TZ_PERIMETER_TOP_ZN_4 WATER-TO-AIR HP HTG COIL,Inlet,1
 Non-Parent Node Connection,TZ_PERIMETER_TOP_ZN_4 WSHP HEATING COIL OUTLET NODE,COIL:HEATING:WATERTOAIRHEATPUMP:EQUATIONFIT,TZ_PERIMETER_TOP_ZN_4 WATER-TO-AIR HP HTG COIL,Outlet,1
 Non-Parent Node Connection,TZ_CORE_BOTTOM WSHP HEATING COIL OUTLET NODE,COIL:HEATING:ELECTRIC,TZ_CORE_BOTTOM SUPPLEMENTAL HTG COIL,Inlet,1
 Non-Parent Node Connection,TZ_CORE_BOTTOM WSHP OUTLET AIR NODE,COIL:HEATING:ELECTRIC,TZ_CORE_BOTTOM SUPPLEMENTAL HTG COIL,Outlet,1
 Non-Parent Node Connection,TZ_CORE_GROUND WSHP HEATING COIL OUTLET NODE,COIL:HEATING:ELECTRIC,TZ_CORE_GROUND SUPPLEMENTAL HTG COIL,Inlet,1
 Non-Parent Node Connection,TZ_CORE_GROUND WSHP OUTLET AIR NODE,COIL:HEATING:ELECTRIC,TZ_CORE_GROUND SUPPLEMENTAL HTG COIL,Outlet,1
 Non-Parent Node Connection,TZ_CORE_MID WSHP HEATING COIL OUTLET NODE,COIL:HEATING:ELECTRIC,TZ_CORE_MID SUPPLEMENTAL HTG COIL,Inlet,1
 Non-Parent Node Connection,TZ_CORE_MID WSHP OUTLET AIR NODE,COIL:HEATING:ELECTRIC,TZ_CORE_MID SUPPLEMENTAL HTG COIL,Outlet,1
 Non-Parent Node Connection,TZ_CORE_TOP WSHP HEATING COIL OUTLET NODE,COIL:HEATING:ELECTRIC,TZ_CORE_TOP SUPPLEMENTAL HTG COIL,Inlet,1
 Non-Parent Node Connection,TZ_CORE_TOP WSHP OUTLET AIR NODE,COIL:HEATING:ELECTRIC,TZ_CORE_TOP SUPPLEMENTAL HTG COIL,Outlet,1
 Non-Parent Node Connection,TZ_PERIMETER_BOT_ZN_1 WSHP HEATING COIL OUTLET NODE,COIL:HEATING:ELECTRIC,TZ_PERIMETER_BOT_ZN_1 SUPPLEMENTAL HTG COIL,Inlet,1
 Non-Parent Node Connection,TZ_PERIMETER_BOT_ZN_1 WSHP OUTLET AIR NODE,COIL:HEATING:ELECTRIC,TZ_PERIMETER_BOT_ZN_1 SUPPLEMENTAL HTG COIL,Outlet,1
 Non-Parent Node Connection,TZ_PERIMETER_BOT_ZN_2 WSHP HEATING COIL OUTLET NODE,COIL:HEATING:ELECTRIC,TZ_PERIMETER_BOT_ZN_2 SUPPLEMENTAL HTG COIL,Inlet,1
 Non-Parent Node Connection,TZ_PERIMETER_BOT_ZN_2 WSHP OUTLET AIR NODE,COIL:HEATING:ELECTRIC,TZ_PERIMETER_BOT_ZN_2 SUPPLEMENTAL HTG COIL,Outlet,1
 Non-Parent Node Connection,TZ_PERIMETER_BOT_ZN_3 WSHP HEATING COIL OUTLET NODE,COIL:HEATING:ELECTRIC,TZ_PERIMETER_BOT_ZN_3 SUPPLEMENTAL HTG COIL,Inlet,1
 Non-Parent Node Connection,TZ_PERIMETER_BOT_ZN_3 WSHP OUTLET AIR NODE,COIL:HEATING:ELECTRIC,TZ_PERIMETER_BOT_ZN_3 SUPPLEMENTAL HTG COIL,Outlet,1
 Non-Parent Node Connection,TZ_PERIMETER_BOT_ZN_4 WSHP HEATING COIL OUTLET NODE,COIL:HEATING:ELECTRIC,TZ_PERIMETER_BOT_ZN_4 SUPPLEMENTAL HTG COIL,Inlet,1
 Non-Parent Node Connection,TZ_PERIMETER_BOT_ZN_4 WSHP OUTLET AIR NODE,COIL:HEATING:ELECTRIC,TZ_PERIMETER_BOT_ZN_4 SUPPLEMENTAL HTG COIL,Outlet,1
 Non-Parent Node Connection,TZ_PERIMETER_GROUND_ZN_1 WSHP HEATING COIL OUTLET NODE,COIL:HEATING:ELECTRIC,TZ_PERIMETER_GROUND_ZN_1 SUPPLEMENTAL HTG COIL,Inlet,1
 Non-Parent Node Connection,TZ_PERIMETER_GROUND_ZN_1 WSHP OUTLET AIR NODE,COIL:HEATING:ELECTRIC,TZ_PERIMETER_GROUND_ZN_1 SUPPLEMENTAL HTG COIL,Outlet,1
 Non-Parent Node Connection,TZ_PERIMETER_GROUND_ZN_2 WSHP HEATING COIL OUTLET NODE,COIL:HEATING:ELECTRIC,TZ_PERIMETER_GROUND_ZN_2 SUPPLEMENTAL HTG COIL,Inlet,1
 Non-Parent Node Connection,TZ_PERIMETER_GROUND_ZN_2 WSHP OUTLET AIR NODE,COIL:HEATING:ELECTRIC,TZ_PERIMETER_GROUND_ZN_2 SUPPLEMENTAL HTG COIL,Outlet,1
 Non-Parent Node Connection,TZ_PERIMETER_GROUND_ZN_3 WSHP HEATING COIL OUTLET NODE,COIL:HEATING:ELECTRIC,TZ_PERIMETER_GROUND_ZN_3 SUPPLEMENTAL HTG COIL,Inlet,1
 Non-Parent Node Connection,TZ_PERIMETER_GROUND_ZN_3 WSHP OUTLET AIR NODE,COIL:HEATING:ELECTRIC,TZ_PERIMETER_GROUND_ZN_3 SUPPLEMENTAL HTG COIL,Outlet,1
 Non-Parent Node Connection,TZ_PERIMETER_GROUND_ZN_4 WSHP HEATING COIL OUTLET NODE,COIL:HEATING:ELECTRIC,TZ_PERIMETER_GROUND_ZN_4 SUPPLEMENTAL HTG COIL,Inlet,1
 Non-Parent Node Connection,TZ_PERIMETER_GROUND_ZN_4 WSHP OUTLET AIR NODE,COIL:HEATING:ELECTRIC,TZ_PERIMETER_GROUND_ZN_4 SUPPLEMENTAL HTG COIL,Outlet,1
 Non-Parent Node Connection,TZ_PERIMETER_MID_ZN_1 WSHP HEATING COIL OUTLET NODE,COIL:HEATING:ELECTRIC,TZ_PERIMETER_MID_ZN_1 SUPPLEMENTAL HTG COIL,Inlet,1
 Non-Parent Node Connection,TZ_PERIMETER_MID_ZN_1 WSHP OUTLET AIR NODE,COIL:HEATING:ELECTRIC,TZ_PERIMETER_MID_ZN_1 SUPPLEMENTAL HTG COIL,Outlet,1
 Non-Parent Node Connection,TZ_PERIMETER_MID_ZN_2 WSHP HEATING COIL OUTLET NODE,COIL:HEATING:ELECTRIC,TZ_PERIMETER_MID_ZN_2 SUPPLEMENTAL HTG COIL,Inlet,1
 Non-Parent Node Connection,TZ_PERIMETER_MID_ZN_2 WSHP OUTLET AIR NODE,COIL:HEATING:ELECTRIC,TZ_PERIMETER_MID_ZN_2 SUPPLEMENTAL HTG COIL,Outlet,1
 Non-Parent Node Connection,TZ_PERIMETER_MID_ZN_3 WSHP HEATING COIL OUTLET NODE,COIL:HEATING:ELECTRIC,TZ_PERIMETER_MID_ZN_3 SUPPLEMENTAL HTG COIL,Inlet,1
 Non-Parent Node Connection,TZ_PERIMETER_MID_ZN_3 WSHP OUTLET AIR NODE,COIL:HEATING:ELECTRIC,TZ_PERIMETER_MID_ZN_3 SUPPLEMENTAL HTG COIL,Outlet,1
 Non-Parent Node Connection,TZ_PERIMETER_MID_ZN_4 WSHP HEATING COIL OUTLET NODE,COIL:HEATING:ELECTRIC,TZ_PERIMETER_MID_ZN_4 SUPPLEMENTAL HTG COIL,Inlet,1
 Non-Parent Node Connection,TZ_PERIMETER_MID_ZN_4 WSHP OUTLET AIR NODE,COIL:HEATING:ELECTRIC,TZ_PERIMETER_MID_ZN_4 SUPPLEMENTAL HTG COIL,Outlet,1
 Non-Parent Node Connection,TZ_PERIMETER_TOP_ZN_1 WSHP HEATING COIL OUTLET NODE,COIL:HEATING:ELECTRIC,TZ_PERIMETER_TOP_ZN_1 SUPPLEMENTAL HTG COIL,Inlet,1
 Non-Parent Node Connection,TZ_PERIMETER_TOP_ZN_1 WSHP OUTLET AIR NODE,COIL:HEATING:ELECTRIC,TZ_PERIMETER_TOP_ZN_1 SUPPLEMENTAL HTG COIL,Outlet,1
 Non-Parent Node Connection,TZ_PERIMETER_TOP_ZN_2 WSHP HEATING COIL OUTLET NODE,COIL:HEATING:ELECTRIC,TZ_PERIMETER_TOP_ZN_2 SUPPLEMENTAL HTG COIL,Inlet,1
 Non-Parent Node Connection,TZ_PERIMETER_TOP_ZN_2 WSHP OUTLET AIR NODE,COIL:HEATING:ELECTRIC,TZ_PERIMETER_TOP_ZN_2 SUPPLEMENTAL HTG COIL,Outlet,1
 Non-Parent Node Connection,TZ_PERIMETER_TOP_ZN_3 WSHP HEATING COIL OUTLET NODE,COIL:HEATING:ELECTRIC,TZ_PERIMETER_TOP_ZN_3 SUPPLEMENTAL HTG COIL,Inlet,1
 Non-Parent Node Connection,TZ_PERIMETER_TOP_ZN_3 WSHP OUTLET AIR NODE,COIL:HEATING:ELECTRIC,TZ_PERIMETER_TOP_ZN_3 SUPPLEMENTAL HTG COIL,Outlet,1
 Non-Parent Node Connection,TZ_PERIMETER_TOP_ZN_4 WSHP HEATING COIL OUTLET NODE,COIL:HEATING:ELECTRIC,TZ_PERIMETER_TOP_ZN_4 SUPPLEMENTAL HTG COIL,Inlet,1
 Non-Parent Node Connection,TZ_PERIMETER_TOP_ZN_4 WSHP OUTLET AIR NODE,COIL:HEATING:ELECTRIC,TZ_PERIMETER_TOP_ZN_4 SUPPLEMENTAL HTG COIL,Outlet,1
 Non-Parent Node Connection,20 ZONE DOAS HTG COIL OUTLET AIR NODE,COIL:HEATING:ELECTRIC,20 ZONE DOAS BACKUP HTG COIL,Inlet,1
 Non-Parent Node Connection,20 ZONE DOAS BACKUP HTG COIL OUTLET AIR NODE,COIL:HEATING:ELECTRIC,20 ZONE DOAS BACKUP HTG COIL,Outlet,1
 Non-Parent Node Connection,20 ZONE DOAS BACKUP HTG COIL OUTLET AIR NODE,COIL:HEATING:ELECTRIC,20 ZONE DOAS BACKUP HTG COIL,Sensor,1
 Non-Parent Node Connection,20 ZONE DOAS DEMAND OUTLET NODE,AIRLOOPHVAC:ZONEMIXER,AIR LOOP HVAC ZONE MIXER 1,Outlet,1
 Non-Parent Node Connection,TZ_PERIMETER_GROUND_ZN_3 RETURN AIR NODE,AIRLOOPHVAC:ZONEMIXER,AIR LOOP HVAC ZONE MIXER 1,Inlet,1
 Non-Parent Node Connection,TZ_CORE_GROUND RETURN AIR NODE,AIRLOOPHVAC:ZONEMIXER,AIR LOOP HVAC ZONE MIXER 1,Inlet,1
 Non-Parent Node Connection,TZ_PERIMETER_MID_ZN_3 RETURN AIR NODE,AIRLOOPHVAC:ZONEMIXER,AIR LOOP HVAC ZONE MIXER 1,Inlet,1
 Non-Parent Node Connection,TZ_PERIMETER_TOP_ZN_4 RETURN AIR NODE,AIRLOOPHVAC:ZONEMIXER,AIR LOOP HVAC ZONE MIXER 1,Inlet,1
 Non-Parent Node Connection,TZ_PERIMETER_TOP_ZN_2 RETURN AIR NODE,AIRLOOPHVAC:ZONEMIXER,AIR LOOP HVAC ZONE MIXER 1,Inlet,1
 Non-Parent Node Connection,TZ_PERIMETER_TOP_ZN_1 RETURN AIR NODE,AIRLOOPHVAC:ZONEMIXER,AIR LOOP HVAC ZONE MIXER 1,Inlet,1
 Non-Parent Node Connection,TZ_PERIMETER_MID_ZN_4 RETURN AIR NODE,AIRLOOPHVAC:ZONEMIXER,AIR LOOP HVAC ZONE MIXER 1,Inlet,1
 Non-Parent Node Connection,TZ_PERIMETER_GROUND_ZN_4 RETURN AIR NODE,AIRLOOPHVAC:ZONEMIXER,AIR LOOP HVAC ZONE MIXER 1,Inlet,1
 Non-Parent Node Connection,TZ_PERIMETER_MID_ZN_1 RETURN AIR NODE,AIRLOOPHVAC:ZONEMIXER,AIR LOOP HVAC ZONE MIXER 1,Inlet,1
 Non-Parent Node Connection,TZ_PERIMETER_BOT_ZN_3 RETURN AIR NODE,AIRLOOPHVAC:ZONEMIXER,AIR LOOP HVAC ZONE MIXER 1,Inlet,1
 Non-Parent Node Connection,TZ_PERIMETER_MID_ZN_2 RETURN AIR NODE,AIRLOOPHVAC:ZONEMIXER,AIR LOOP HVAC ZONE MIXER 1,Inlet,1
 Non-Parent Node Connection,TZ_PERIMETER_BOT_ZN_4 RETURN AIR NODE,AIRLOOPHVAC:ZONEMIXER,AIR LOOP HVAC ZONE MIXER 1,Inlet,1
 Non-Parent Node Connection,TZ_PERIMETER_BOT_ZN_2 RETURN AIR NODE,AIRLOOPHVAC:ZONEMIXER,AIR LOOP HVAC ZONE MIXER 1,Inlet,1
 Non-Parent Node Connection,TZ_PERIMETER_GROUND_ZN_2 RETURN AIR NODE,AIRLOOPHVAC:ZONEMIXER,AIR LOOP HVAC ZONE MIXER 1,Inlet,1
 Non-Parent Node Connection,TZ_PERIMETER_BOT_ZN_1 RETURN AIR NODE,AIRLOOPHVAC:ZONEMIXER,AIR LOOP HVAC ZONE MIXER 1,Inlet,1
 Non-Parent Node Connection,TZ_PERIMETER_GROUND_ZN_1 RETURN AIR NODE,AIRLOOPHVAC:ZONEMIXER,AIR LOOP HVAC ZONE MIXER 1,Inlet,1
 Non-Parent Node Connection,TZ_CORE_MID RETURN AIR NODE,AIRLOOPHVAC:ZONEMIXER,AIR LOOP HVAC ZONE MIXER 1,Inlet,1
 Non-Parent Node Connection,TZ_PERIMETER_TOP_ZN_3 RETURN AIR NODE,AIRLOOPHVAC:ZONEMIXER,AIR LOOP HVAC ZONE MIXER 1,Inlet,1
 Non-Parent Node Connection,TZ_CORE_TOP RETURN AIR NODE,AIRLOOPHVAC:ZONEMIXER,AIR LOOP HVAC ZONE MIXER 1,Inlet,1
 Non-Parent Node Connection,TZ_CORE_BOTTOM RETURN AIR NODE,AIRLOOPHVAC:ZONEMIXER,AIR LOOP HVAC ZONE MIXER 1,Inlet,1
 Non-Parent Node Connection,20 ZONE DOAS MIXED AIR NODE,OUTDOORAIR:MIXER,20 ZONE DOAS OA SYSTEM OUTDOOR AIR MIXER,Outlet,1
 Non-Parent Node Connection,20 ZONE DOAS HEAT EXCHANGER PRIMARY OUTLET AIR NODE,OUTDOORAIR:MIXER,20 ZONE DOAS OA SYSTEM OUTDOOR AIR MIXER,Inlet,1
 Non-Parent Node Connection,20 ZONE DOAS HEAT EXCHANGER SECONDARY INLET AIR NODE,OUTDOORAIR:MIXER,20 ZONE DOAS OA SYSTEM OUTDOOR AIR MIXER,ReliefAir,1
 Non-Parent Node Connection,DOAS EXHAUST FAN OUTLET AIR NODE,OUTDOORAIR:MIXER,20 ZONE DOAS OA SYSTEM OUTDOOR AIR MIXER,Inlet,1
 Non-Parent Node Connection,20 ZONE DOAS MIXED AIR NODE,CONTROLLER:OUTDOORAIR,20 ZONE DOAS OUTDOOR AIR CONTROLLER,Sensor,1
 Non-Parent Node Connection,20 ZONE DOAS OUTDOOR AIR NODE,CONTROLLER:OUTDOORAIR,20 ZONE DOAS OUTDOOR AIR CONTROLLER,Actuator,1
 Non-Parent Node Connection,20 ZONE DOAS HEAT EXCHANGER SECONDARY INLET AIR NODE,CONTROLLER:OUTDOORAIR,20 ZONE DOAS OUTDOOR AIR CONTROLLER,Actuator,1
 Non-Parent Node Connection,DOAS EXHAUST FAN OUTLET AIR NODE,CONTROLLER:OUTDOORAIR,20 ZONE DOAS OUTDOOR AIR CONTROLLER,Sensor,1
 Non-Parent Node Connection,20 ZONE DOAS OUTDOOR AIR NODE,HEATEXCHANGER:AIRTOAIR:SENSIBLEANDLATENT,20 ZONE DOAS HEAT EXCHANGER,Inlet,1
 Non-Parent Node Connection,20 ZONE DOAS HEAT EXCHANGER PRIMARY OUTLET AIR NODE,HEATEXCHANGER:AIRTOAIR:SENSIBLEANDLATENT,20 ZONE DOAS HEAT EXCHANGER,Outlet,1
 Non-Parent Node Connection,20 ZONE DOAS HEAT EXCHANGER SECONDARY INLET AIR NODE,HEATEXCHANGER:AIRTOAIR:SENSIBLEANDLATENT,20 ZONE DOAS HEAT EXCHANGER,Inlet,2
 Non-Parent Node Connection,20 ZONE DOAS RELIEF AIR NODE,HEATEXCHANGER:AIRTOAIR:SENSIBLEANDLATENT,20 ZONE DOAS HEAT EXCHANGER,Outlet,2
 Non-Parent Node Connection,20 ZONE DOAS 2SPD DX CLG COIL OUTLET AIR NODE,COIL:HEATING:DX:SINGLESPEED,20 ZONE DOAS HTG COIL 348 CLG KBTU/HR 3.3COPH,Inlet,1
 Non-Parent Node Connection,20 ZONE DOAS HTG COIL OUTLET AIR NODE,COIL:HEATING:DX:SINGLESPEED,20 ZONE DOAS HTG COIL 348 CLG KBTU/HR 3.3COPH,Outlet,1
 Non-Parent Node Connection,20 ZONE DOAS MIXED AIR NODE,COIL:COOLING:DX:TWOSPEED,20 ZONE DOAS 2SPD DX CLG COIL,Inlet,1
 Non-Parent Node Connection,20 ZONE DOAS 2SPD DX CLG COIL OUTLET AIR NODE,COIL:COOLING:DX:TWOSPEED,20 ZONE DOAS 2SPD DX CLG COIL,Outlet,1
 Non-Parent Node Connection,GROUND HX INLET WATER NODE,PLANTCOMPONENT:TEMPERATURESOURCE,GROUND HX,Inlet,1
 Non-Parent Node Connection,GROUND HX OUTLET WATER NODE,PLANTCOMPONENT:TEMPERATURESOURCE,GROUND HX,Outlet,1
 Non-Parent Node Connection,GROUND HX LOOP SUPPLY INLET NODE,PUMP:CONSTANTSPEED,GROUND HX LOOP PUMP,Inlet,1
 Non-Parent Node Connection,GROUND HX LOOP PUMP OUTLET WATER NODE,PUMP:CONSTANTSPEED,GROUND HX LOOP PUMP,Outlet,1
 Non-Parent Node Connection,MAIN SERVICE WATER LOOP SUPPLY INLET NODE,PUMP:CONSTANTSPEED,SERVICE WATER LOOP PUMP,Inlet,1
 Non-Parent Node Connection,SERVICE WATER LOOP PUMP OUTLET WATER NODE,PUMP:CONSTANTSPEED,SERVICE WATER LOOP PUMP,Outlet,1
 Non-Parent Node Connection,GROUND HX INLET WATER NODE,PLANTEQUIPMENTOPERATION:COMPONENTSETPOINT,GROUND HX LOOP SETPOINT OPERATION SCHEME,Sensor,1
 Non-Parent Node Connection,GROUND HX OUTLET WATER NODE,PLANTEQUIPMENTOPERATION:COMPONENTSETPOINT,GROUND HX LOOP SETPOINT OPERATION SCHEME,Sensor,1
