Program Version,EnergyPlus, Version 9.1.0-08d2e308bb, YMD=2019.04.09 23:17
! <Version>, Version ID
 Version, 9.1
! <Timesteps per Hour>, #TimeSteps, Minutes per TimeStep {minutes}
 Timesteps per Hour,  6, 10
! <System Convergence Limits>, Minimum System TimeStep {minutes}, Max HVAC Iterations, Minimum Plant Iterations, Maximum Plant Iterations
 System Convergence Limits, 2, 25, 2, 8
! <Simulation Control>, Do Zone Sizing, Do System Sizing, Do Plant Sizing, Do Design Days, Do Weather Simulation, Do HVAC Sizing Simulation
 Simulation Control, Yes, Yes, Yes, No, Yes, No
! <Output Reporting Tolerances>, Tolerance for Time Heating Setpoint Not Met, Tolerance for Zone Cooling Setpoint Not Met Time
 Output Reporting Tolerances, 0.556, 0.556, 
! <Site:GroundTemperature:BuildingSurface>,Jan{C},Feb{C},Mar{C},Apr{C},May{C},Jun{C},Jul{C},Aug{C},Sep{C},Oct{C},Nov{C},Dec{C}
 Site:GroundTemperature:BuildingSurface,  20.49,  20.43,  20.44,  20.50,  20.59,  22.83,  23.24,  23.33,  23.36,  21.14,  20.78,  20.61
! <Site:GroundTemperature:FCfactorMethod>,Jan{C},Feb{C},Mar{C},Apr{C},May{C},Jun{C},Jul{C},Aug{C},Sep{C},Oct{C},Nov{C},Dec{C}
 Site:GroundTemperature:FCfactorMethod,  -1.89,  -3.06,  -0.99,   2.23,  10.68,  17.20,  21.60,  22.94,  20.66,  15.60,   8.83,   2.56
! <Site:GroundTemperature:Shallow>,Jan{C},Feb{C},Mar{C},Apr{C},May{C},Jun{C},Jul{C},Aug{C},Sep{C},Oct{C},Nov{C},Dec{C}
 Site:GroundTemperature:Shallow,  13.00,  13.00,  13.00,  13.00,  13.00,  13.00,  13.00,  13.00,  13.00,  13.00,  13.00,  13.00
! <Site:GroundTemperature:Deep>,Jan{C},Feb{C},Mar{C},Apr{C},May{C},Jun{C},Jul{C},Aug{C},Sep{C},Oct{C},Nov{C},Dec{C}
 Site:GroundTemperature:Deep,  16.00,  16.00,  16.00,  16.00,  16.00,  16.00,  16.00,  16.00,  16.00,  16.00,  16.00,  16.00
! <Site:GroundReflectance>,Jan{dimensionless},Feb{dimensionless},Mar{dimensionless},Apr{dimensionless},May{dimensionless},Jun{dimensionless},Jul{dimensionless},Aug{dimensionless},Sep{dimensionless},Oct{dimensionless},Nov{dimensionless},Dec{dimensionless}
 Site:GroundReflectance,  0.20,  0.20,  0.20,  0.20,  0.20,  0.20,  0.20,  0.20,  0.20,  0.20,  0.20,  0.20
! <Site:GroundReflectance:SnowModifier>, Normal, Daylighting {dimensionless}
 Site:GroundReflectance:SnowModifier,   1.000,   1.000
! <Site:GroundReflectance:Snow>,Jan{dimensionless},Feb{dimensionless},Mar{dimensionless},Apr{dimensionless},May{dimensionless},Jun{dimensionless},Jul{dimensionless},Aug{dimensionless},Sep{dimensionless},Oct{dimensionless},Nov{dimensionless},Dec{dimensionless}
 Site:GroundReflectance:Snow,  0.20,  0.20,  0.20,  0.20,  0.20,  0.20,  0.20,  0.20,  0.20,  0.20,  0.20,  0.20
! <Site:GroundReflectance:Snow:Daylighting>,Jan{dimensionless},Feb{dimensionless},Mar{dimensionless},Apr{dimensionless},May{dimensionless},Jun{dimensionless},Jul{dimensionless},Aug{dimensionless},Sep{dimensionless},Oct{dimensionless},Nov{dimensionless},Dec{dimensionless}
 Site:GroundReflectance:Snow:Daylighting,  0.20,  0.20,  0.20,  0.20,  0.20,  0.20,  0.20,  0.20,  0.20,  0.20,  0.20,  0.20
! <Environment:Weather Station>,Wind Sensor Height Above Ground {m},Wind Speed Profile Exponent {},Wind Speed Profile Boundary Layer Thickness {m},Air Temperature Sensor Height Above Ground {m},Wind Speed Modifier Coefficient-Internal,Temperature Modifier Coefficient-Internal
Environment:Weather Station,10.000,0.140,270.000,1.500,1.586,9.750E-003
! <Site:Location>, Location Name, Latitude {N+/S- Deg}, Longitude {E+/W- Deg},  Time Zone Number {GMT+/-}, Elevation {m},  Standard Pressure at Elevation {Pa}, Standard RhoAir at Elevation
Site:Location,Chicago Ohare Intl Ap IL USA TMY3 WMO#=725300,41.98,-87.92,-6.00,201.00,98934,1.1759
! <Site Water Mains Temperature Information>,Calculation Method{},Water Mains Temperature Schedule Name{},Annual Average Outdoor Air Temperature{C},Maximum Difference In Monthly Average Outdoor Air Temperatures{deltaC},Fixed Default Water Mains Temperature{C}
Site Water Mains Temperature Information,Correlation,NA,9.93,28.70,NA
! <Building Information>, Building Name,North Axis {deg},Terrain,  Loads Convergence Tolerance Value,Temperature Convergence Tolerance Value,  Solar Distribution,Maximum Number of Warmup Days,Minimum Number of Warmup Days
 Building Information,Medium Office Retail Mix ASHRAE 169-2006-5A,0.000,City,4.00000E-002,0.20000,FullInteriorAndExterior,25,6
! <Inside Convection Algorithm>, Algorithm {Simple | TARP | CeilingDiffuser | AdaptiveConvectionAlgorithm}
Inside Convection Algorithm,TARP
! <Outside Convection Algorithm>, Algorithm {SimpleCombined | TARP | MoWitt | DOE-2 | AdaptiveConvectionAlgorithm}
Outside Convection Algorithm,TARP
! <Sky Radiance Distribution>, Value {Anisotropic}
Sky Radiance Distribution,Anisotropic
! <Zone Air Solution Algorithm>, Value {ThirdOrderBackwardDifference | AnalyticalSolution | EulerMethod}
 Zone Air Solution Algorithm, ThirdOrderBackwardDifference
! <Zone Air Carbon Dioxide Balance Simulation>, Simulation {Yes/No}, Carbon Dioxide Concentration
 Zone Air Carbon Dioxide Balance Simulation, No,N/A
! <Zone Air Generic Contaminant Balance Simulation>, Simulation {Yes/No}, Generic Contaminant Concentration
 Zone Air Generic Contaminant Balance Simulation, No,N/A
! <Zone Air Mass Flow Balance Simulation>, Enforce Mass Balance, Adjust Zone Mixing, Adjust Zone Infiltration {AddInfiltration | AdjustInfiltration | None}, Infiltration Zones {MixingSourceZonesOnly | AllZones}
 Zone Air Mass Flow Balance Simulation, No,N/A,N/A,N/A
! <HVACSystemRootFindingAlgorithm>, Value {RegulaFalsi | Bisection | BisectionThenRegulaFalsi | RegulaFalsiThenBisection}
 HVACSystemRootFindingAlgorithm, RegulaFalsi
! <Environment:Site Atmospheric Variation>,Wind Speed Profile Exponent {},Wind Speed Profile Boundary Layer Thickness {m},Air Temperature Gradient Coefficient {K/m}
Environment:Site Atmospheric Variation,0.330,460.000,6.500000E-003
! <Surface Geometry>,Starting Corner,Vertex Input Direction,Coordinate System,Daylight Reference Point Coordinate System,Rectangular (Simple) Surface Coordinate System
 Surface Geometry,UpperLeftCorner,Counterclockwise,RelativeCoordinateSystem,RelativeCoordinateSystem,RelativeToZoneOrigin
! <Surface Heat Transfer Algorithm>, Value {CTF - ConductionTransferFunction | EMPD - MoisturePenetrationDepthConductionTransferFunction | CondFD - ConductionFiniteDifference | HAMT - CombinedHeatAndMoistureFiniteElement} - Description,Inside Surface Max Temperature Limit{C}, Surface Convection Coefficient Lower Limit {W/m2-K}, Surface Convection Coefficient Upper Limit {W/m2-K}
Surface Heat Transfer Algorithm, CTF - ConductionTransferFunction,200,0.10,1000.0
! <Shading Summary>, Number of Fixed Detached Shades, Number of Building Detached Shades, Number of Attached Shades
 Shading Summary,0,0,0
! <Zone Summary>, Number of Zones, Number of Zone Surfaces, Number of SubSurfaces
 Zone Summary,24,209,16
! <Zone Information>,Zone Name,North Axis {deg},Origin X-Coordinate {m},Origin Y-Coordinate {m},Origin Z-Coordinate {m},Centroid X-Coordinate {m},Centroid Y-Coordinate {m},Centroid Z-Coordinate {m},Type,Zone Multiplier,Zone List Multiplier,Minimum X {m},Maximum X {m},Minimum Y {m},Maximum Y {m},Minimum Z {m},Maximum Z {m},Ceiling Height {m},Volume {m3},Zone Inside Convection Algorithm {Simple-Detailed-CeilingDiffuser-TrombeWall},Zone Outside Convection Algorithm {Simple-Detailed-Tarp-MoWitt-DOE-2-BLAST}, Floor Area {m2},Exterior Gross Wall Area {m2},Exterior Net Wall Area {m2},Exterior Window Area {m2}, Number of Surfaces, Number of SubSurfaces, Number of Shading SubSurfaces,  Part of Total Building Area
 Zone Information, TZ_CORE_BOTTOM,0.0,0.00,0.00,4.57,24.96,16.64,5.94,1,1,1,4.57,45.34,4.57,28.70,4.57,7.32,2.74,2698.04,TARP,TARP,983.54,0.00,0.00,0.00,7,0,0,Yes
 Zone Information, TZ_CORE_GROUND,0.0,45.34,4.57,0.00,24.96,16.64,1.98,1,1,1,4.57,45.34,4.57,28.70,0.00,3.96,3.96,3897.17,TARP,TARP,983.54,0.00,0.00,0.00,6,0,0,Yes
 Zone Information, TZ_CORE_MID,0.0,0.00,0.00,4.57,24.96,16.64,9.91,1,1,1,4.57,45.34,4.57,28.70,8.53,11.28,2.74,2698.04,TARP,TARP,983.54,0.00,0.00,0.00,6,0,0,Yes
 Zone Information, TZ_CORE_TOP,0.0,0.00,0.00,4.57,24.96,16.64,13.87,1,1,1,4.57,45.34,4.57,28.70,12.50,15.24,2.74,2698.04,TARP,TARP,983.54,0.00,0.00,0.00,6,0,0,Yes
 Zone Information, TZ_FIRSTFLOOR_PLENUM,0.0,0.00,0.00,4.57,24.96,16.64,7.92,1,1,1,0.00,49.91,0.00,33.27,7.32,8.53,1.22,2024.76,TARP,TARP,1660.73,202.84,202.84,0.00,14,0,0,No
 Zone Information, TZ_GROUNDFLOOR_PLENUM,0.0,49.91,33.27,3.96,24.96,16.64,4.27,1,1,1,0.00,49.91,0.00,33.27,3.96,4.57,0.61,1012.38,TARP,TARP,1660.73,101.42,101.42,0.00,17,0,0,Yes
 Zone Information, TZ_MIDFLOOR_PLENUM,0.0,0.00,0.00,4.57,24.96,16.64,11.89,1,1,1,0.00,49.91,0.00,33.27,11.28,12.50,1.22,2024.76,TARP,TARP,1660.73,202.84,202.84,0.00,14,0,0,No
 Zone Information, TZ_PERIMETER_BOT_ZN_1,0.0,0.00,0.00,4.57,24.96,2.16,5.94,1,1,1,0.00,49.91,0.00,4.57,4.57,7.32,2.74,568.77,TARP,TARP,207.34,136.92,71.63,65.28,6,1,0,Yes
 Zone Information, TZ_PERIMETER_BOT_ZN_2,0.0,0.00,0.00,4.57,47.82,16.64,5.94,1,1,1,45.34,49.91,0.00,33.27,4.57,7.32,2.74,360.08,TARP,TARP,131.26,91.28,47.75,43.52,7,1,0,Yes
 Zone Information, TZ_PERIMETER_BOT_ZN_3,0.0,0.00,0.00,4.57,24.96,31.11,5.94,1,1,1,0.00,49.91,28.70,33.27,4.57,7.32,2.74,568.77,TARP,TARP,207.34,136.92,71.63,65.28,6,1,0,Yes
 Zone Information, TZ_PERIMETER_BOT_ZN_4,0.0,0.00,0.00,4.57,2.09,16.64,5.94,1,1,1,-2.05E-032,4.57,-1.72E-041,33.27,4.57,7.32,2.74,360.05,TARP,TARP,131.25,91.28,47.75,43.52,7,1,0,Yes
 Zone Information, TZ_PERIMETER_GROUND_ZN_1,0.0,49.91,0.00,0.00,24.96,2.15,1.98,1,1,1,0.00,49.91,0.00,4.57,0.00,3.96,3.96,821.56,TARP,TARP,207.34,197.77,39.55,158.21,6,1,0,Yes
 Zone Information, TZ_PERIMETER_GROUND_ZN_2,0.0,45.34,28.70,0.00,47.84,16.64,1.98,1,1,1,45.34,49.91,0.00,33.27,-9.92E-031,3.96,3.96,520.11,TARP,TARP,131.26,131.84,26.37,105.48,6,1,0,Yes
 Zone Information, TZ_PERIMETER_GROUND_ZN_3,0.0,0.00,33.27,0.00,24.96,31.13,1.98,1,1,1,0.00,49.91,28.70,33.27,0.00,3.96,3.96,821.56,TARP,TARP,207.34,197.77,39.55,158.21,6,1,0,Yes
 Zone Information, TZ_PERIMETER_GROUND_ZN_4,0.0,0.00,0.00,0.00,2.07,16.64,1.98,1,1,1,0.00,4.57,0.00,33.27,0.00,3.96,3.96,520.08,TARP,TARP,131.25,131.84,26.37,105.48,6,1,0,Yes
 Zone Information, TZ_PERIMETER_MID_ZN_1,0.0,0.00,0.00,4.57,24.96,2.16,9.91,1,1,1,0.00,49.91,0.00,4.57,8.53,11.28,2.74,568.77,TARP,TARP,207.34,136.92,71.63,65.28,6,1,0,Yes
 Zone Information, TZ_PERIMETER_MID_ZN_2,0.0,0.00,0.00,4.57,47.82,16.64,9.91,1,1,1,45.34,49.91,0.00,33.27,8.53,11.28,2.74,360.08,TARP,TARP,131.26,91.28,47.75,43.52,6,1,0,Yes
 Zone Information, TZ_PERIMETER_MID_ZN_3,0.0,0.00,0.00,4.57,24.96,31.11,9.91,1,1,1,0.00,49.91,28.70,33.27,8.53,11.28,2.74,568.77,TARP,TARP,207.34,136.92,71.63,65.28,6,1,0,Yes
 Zone Information, TZ_PERIMETER_MID_ZN_4,0.0,0.00,0.00,4.57,2.09,16.64,9.91,1,1,1,0.00,4.57,0.00,33.27,8.53,11.28,2.74,360.05,TARP,TARP,131.25,91.28,47.75,43.52,6,1,0,Yes
 Zone Information, TZ_PERIMETER_TOP_ZN_1,0.0,0.00,0.00,4.57,24.96,2.16,13.87,1,1,1,0.00,49.91,0.00,4.57,12.50,15.24,2.74,568.77,TARP,TARP,207.34,136.92,71.63,65.28,6,1,0,Yes
 Zone Information, TZ_PERIMETER_TOP_ZN_2,0.0,0.00,0.00,4.57,47.82,16.64,13.87,1,1,1,45.34,49.91,0.00,33.27,12.50,15.24,2.74,360.08,TARP,TARP,131.26,91.28,47.75,43.52,6,1,0,Yes
 Zone Information, TZ_PERIMETER_TOP_ZN_3,0.0,0.00,0.00,4.57,24.96,31.11,13.87,1,1,1,0.00,49.91,28.70,33.27,12.50,15.24,2.74,568.77,TARP,TARP,207.34,136.92,71.63,65.28,6,1,0,Yes
 Zone Information, TZ_PERIMETER_TOP_ZN_4,0.0,0.00,0.00,4.57,2.09,16.64,13.87,1,1,1,0.00,4.57,0.00,33.27,12.50,15.24,2.74,360.05,TARP,TARP,131.25,91.28,47.75,43.52,6,1,0,Yes
 Zone Information, TZ_TOPFLOOR_PLENUM,0.0,0.00,0.00,4.57,24.96,16.64,15.85,1,1,1,0.00,49.91,0.00,33.27,15.24,16.46,1.22,2024.76,TARP,TARP,1660.73,202.84,202.84,0.00,10,0,0,No
! <Zone Internal Gains Nominal>,Zone Name, Floor Area {m2},# Occupants,Area per Occupant {m2/person},Occupant per Area {person/m2},Interior Lighting {W/m2},Electric Load {W/m2},Gas Load {W/m2},Other Load {W/m2},Hot Water Eq {W/m2},Steam Equipment {W/m2},Sum Loads per Area {W/m2},Outdoor Controlled Baseboard Heat
 Zone Internal Gains Nominal, TZ_CORE_BOTTOM,983.54,52.9,18.581,5.382E-002,8.826,40.849,0.000,0.000,0.000,0.000,49.676,No
 Zone Internal Gains Nominal, TZ_CORE_GROUND,983.54,158.8,6.194,0.161,18.083,2.368,0.000,0.000,0.000,0.000,20.451,No
 Zone Internal Gains Nominal, TZ_CORE_MID,983.54,52.9,18.581,5.382E-002,8.826,8.073,0.000,0.000,0.000,0.000,16.899,No
 Zone Internal Gains Nominal, TZ_CORE_TOP,983.54,52.9,18.581,5.382E-002,8.826,8.073,0.000,0.000,0.000,0.000,16.899,No
 Zone Internal Gains Nominal, TZ_FIRSTFLOOR_PLENUM,1660.73,0.0,N/A,0.000,0.000,0.000,0.000,0.000,0.000,0.000,0.000,No
 Zone Internal Gains Nominal, TZ_GROUNDFLOOR_PLENUM,1660.73,0.0,N/A,0.000,0.000,0.000,0.000,0.000,0.000,0.000,0.000,No
 Zone Internal Gains Nominal, TZ_MIDFLOOR_PLENUM,1660.73,0.0,N/A,0.000,0.000,0.000,0.000,0.000,0.000,0.000,0.000,No
 Zone Internal Gains Nominal, TZ_PERIMETER_BOT_ZN_1,207.34,11.2,18.581,5.382E-002,8.826,8.073,0.000,0.000,0.000,0.000,16.899,No
 Zone Internal Gains Nominal, TZ_PERIMETER_BOT_ZN_2,131.26,7.1,18.581,5.382E-002,8.826,8.073,0.000,0.000,0.000,0.000,16.899,No
 Zone Internal Gains Nominal, TZ_PERIMETER_BOT_ZN_3,207.34,11.2,18.581,5.382E-002,8.826,8.073,0.000,0.000,0.000,0.000,16.899,No
 Zone Internal Gains Nominal, TZ_PERIMETER_BOT_ZN_4,131.25,7.1,18.581,5.382E-002,8.826,8.073,0.000,0.000,0.000,0.000,16.899,No
 Zone Internal Gains Nominal, TZ_PERIMETER_GROUND_ZN_1,207.34,33.5,6.194,0.161,18.083,2.368,0.000,0.000,0.000,0.000,20.451,No
 Zone Internal Gains Nominal, TZ_PERIMETER_GROUND_ZN_2,131.26,21.2,6.194,0.161,18.083,2.368,0.000,0.000,0.000,0.000,20.451,No
 Zone Internal Gains Nominal, TZ_PERIMETER_GROUND_ZN_3,207.34,33.5,6.194,0.161,18.083,2.368,0.000,0.000,0.000,0.000,20.451,No
 Zone Internal Gains Nominal, TZ_PERIMETER_GROUND_ZN_4,131.25,21.2,6.194,0.161,18.083,2.368,0.000,0.000,0.000,0.000,20.451,No
 Zone Internal Gains Nominal, TZ_PERIMETER_MID_ZN_1,207.34,11.2,18.581,5.382E-002,8.826,8.073,0.000,0.000,0.000,0.000,16.899,No
 Zone Internal Gains Nominal, TZ_PERIMETER_MID_ZN_2,131.26,7.1,18.581,5.382E-002,8.826,8.073,0.000,0.000,0.000,0.000,16.899,No
 Zone Internal Gains Nominal, TZ_PERIMETER_MID_ZN_3,207.34,11.2,18.581,5.382E-002,8.826,8.073,0.000,0.000,0.000,0.000,16.899,No
 Zone Internal Gains Nominal, TZ_PERIMETER_MID_ZN_4,131.25,7.1,18.581,5.382E-002,8.826,8.073,0.000,0.000,0.000,0.000,16.899,No
 Zone Internal Gains Nominal, TZ_PERIMETER_TOP_ZN_1,207.34,11.2,18.581,5.382E-002,8.826,8.073,0.000,0.000,0.000,0.000,16.899,No
 Zone Internal Gains Nominal, TZ_PERIMETER_TOP_ZN_2,131.26,7.1,18.581,5.382E-002,8.826,8.073,0.000,0.000,0.000,0.000,16.899,No
 Zone Internal Gains Nominal, TZ_PERIMETER_TOP_ZN_3,207.34,11.2,18.581,5.382E-002,8.826,8.073,0.000,0.000,0.000,0.000,16.899,No
 Zone Internal Gains Nominal, TZ_PERIMETER_TOP_ZN_4,131.25,7.1,18.581,5.382E-002,8.826,8.073,0.000,0.000,0.000,0.000,16.899,No
 Zone Internal Gains Nominal, TZ_TOPFLOOR_PLENUM,1660.73,0.0,N/A,0.000,0.000,0.000,0.000,0.000,0.000,0.000,0.000,No
! <People Internal Gains Nominal>,Name,Schedule Name,Zone Name,Zone Floor Area {m2},# Zone Occupants,Number of People {},People/Floor Area {person/m2},Floor Area per person {m2/person},Fraction Radiant,Fraction Convected,Sensible Fraction Calculation,Activity level,ASHRAE 55 Warnings,Carbon Dioxide Generation Rate,Nominal Minimum Number of People,Nominal Maximum Number of People
 People Internal Gains Nominal, TZ_CORE_GROUND 90.1-2010 - RETAIL - RETAIL PEOPLE,RETAIL BLDG OCC,TZ_CORE_GROUND,983.54,158.8,158.8,0.161,6.194,0.300,0.700,AutoCalculate,RETAIL ACTIVITY,No,3.8200E-008,0,159
 People Internal Gains Nominal, TZ_PERIMETER_GROUND_ZN_1 90.1-2010 - RETAIL - RETAIL PEOPLE,RETAIL BLDG OCC,TZ_PERIMETER_GROUND_ZN_1,207.34,33.5,33.5,0.161,6.194,0.300,0.700,AutoCalculate,RETAIL ACTIVITY,No,3.8200E-008,0,33
 People Internal Gains Nominal, TZ_PERIMETER_GROUND_ZN_2 90.1-2010 - RETAIL - RETAIL PEOPLE,RETAIL BLDG OCC,TZ_PERIMETER_GROUND_ZN_2,131.26,21.2,21.2,0.161,6.194,0.300,0.700,AutoCalculate,RETAIL ACTIVITY,No,3.8200E-008,0,21
 People Internal Gains Nominal, TZ_PERIMETER_GROUND_ZN_3 90.1-2010 - RETAIL - RETAIL PEOPLE,RETAIL BLDG OCC,TZ_PERIMETER_GROUND_ZN_3,207.34,33.5,33.5,0.161,6.194,0.300,0.700,AutoCalculate,RETAIL ACTIVITY,No,3.8200E-008,0,33
 People Internal Gains Nominal, TZ_PERIMETER_GROUND_ZN_4 90.1-2010 - RETAIL - RETAIL PEOPLE,RETAIL BLDG OCC,TZ_PERIMETER_GROUND_ZN_4,131.25,21.2,21.2,0.161,6.194,0.300,0.700,AutoCalculate,RETAIL ACTIVITY,No,3.8200E-008,0,21
 People Internal Gains Nominal, TZ_CORE_BOTTOM OFFICE WHOLEBUILDING - MD OFFICE PEOPLE,OFFICEMEDIUM BLDG_OCC_SCH,TZ_CORE_BOTTOM,983.54,52.9,52.9,5.382E-002,18.581,0.300,0.700,AutoCalculate,OFFICEMEDIUM ACTIVITY_SCH,No,3.8200E-008,0,53
 People Internal Gains Nominal, TZ_CORE_MID OFFICE WHOLEBUILDING - MD OFFICE PEOPLE,OFFICEMEDIUM BLDG_OCC_SCH,TZ_CORE_MID,983.54,52.9,52.9,5.382E-002,18.581,0.300,0.700,AutoCalculate,OFFICEMEDIUM ACTIVITY_SCH,No,3.8200E-008,0,53
 People Internal Gains Nominal, TZ_CORE_TOP OFFICE WHOLEBUILDING - MD OFFICE PEOPLE,OFFICEMEDIUM BLDG_OCC_SCH,TZ_CORE_TOP,983.54,52.9,52.9,5.382E-002,18.581,0.300,0.700,AutoCalculate,OFFICEMEDIUM ACTIVITY_SCH,No,3.8200E-008,0,53
 People Internal Gains Nominal, TZ_PERIMETER_BOT_ZN_1 OFFICE WHOLEBUILDING - MD OFFICE PEOPLE,OFFICEMEDIUM BLDG_OCC_SCH,TZ_PERIMETER_BOT_ZN_1,207.34,11.2,11.2,5.382E-002,18.581,0.300,0.700,AutoCalculate,OFFICEMEDIUM ACTIVITY_SCH,No,3.8200E-008,0,11
 People Internal Gains Nominal, TZ_PERIMETER_BOT_ZN_2 OFFICE WHOLEBUILDING - MD OFFICE PEOPLE,OFFICEMEDIUM BLDG_OCC_SCH,TZ_PERIMETER_BOT_ZN_2,131.26,7.1,7.1,5.382E-002,18.581,0.300,0.700,AutoCalculate,OFFICEMEDIUM ACTIVITY_SCH,No,3.8200E-008,0,7
 People Internal Gains Nominal, TZ_PERIMETER_BOT_ZN_3 OFFICE WHOLEBUILDING - MD OFFICE PEOPLE,OFFICEMEDIUM BLDG_OCC_SCH,TZ_PERIMETER_BOT_ZN_3,207.34,11.2,11.2,5.382E-002,18.581,0.300,0.700,AutoCalculate,OFFICEMEDIUM ACTIVITY_SCH,No,3.8200E-008,0,11
 People Internal Gains Nominal, TZ_PERIMETER_BOT_ZN_4 OFFICE WHOLEBUILDING - MD OFFICE PEOPLE,OFFICEMEDIUM BLDG_OCC_SCH,TZ_PERIMETER_BOT_ZN_4,131.25,7.1,7.1,5.382E-002,18.581,0.300,0.700,AutoCalculate,OFFICEMEDIUM ACTIVITY_SCH,No,3.8200E-008,0,7
 People Internal Gains Nominal, TZ_PERIMETER_MID_ZN_1 OFFICE WHOLEBUILDING - MD OFFICE PEOPLE,OFFICEMEDIUM BLDG_OCC_SCH,TZ_PERIMETER_MID_ZN_1,207.34,11.2,11.2,5.382E-002,18.581,0.300,0.700,AutoCalculate,OFFICEMEDIUM ACTIVITY_SCH,No,3.8200E-008,0,11
 People Internal Gains Nominal, TZ_PERIMETER_MID_ZN_2 OFFICE WHOLEBUILDING - MD OFFICE PEOPLE,OFFICEMEDIUM BLDG_OCC_SCH,TZ_PERIMETER_MID_ZN_2,131.26,7.1,7.1,5.382E-002,18.581,0.300,0.700,AutoCalculate,OFFICEMEDIUM ACTIVITY_SCH,No,3.8200E-008,0,7
 People Internal Gains Nominal, TZ_PERIMETER_MID_ZN_3 OFFICE WHOLEBUILDING - MD OFFICE PEOPLE,OFFICEMEDIUM BLDG_OCC_SCH,TZ_PERIMETER_MID_ZN_3,207.34,11.2,11.2,5.382E-002,18.581,0.300,0.700,AutoCalculate,OFFICEMEDIUM ACTIVITY_SCH,No,3.8200E-008,0,11
 People Internal Gains Nominal, TZ_PERIMETER_MID_ZN_4 OFFICE WHOLEBUILDING - MD OFFICE PEOPLE,OFFICEMEDIUM BLDG_OCC_SCH,TZ_PERIMETER_MID_ZN_4,131.25,7.1,7.1,5.382E-002,18.581,0.300,0.700,AutoCalculate,OFFICEMEDIUM ACTIVITY_SCH,No,3.8200E-008,0,7
 People Internal Gains Nominal, TZ_PERIMETER_TOP_ZN_1 OFFICE WHOLEBUILDING - MD OFFICE PEOPLE,OFFICEMEDIUM BLDG_OCC_SCH,TZ_PERIMETER_TOP_ZN_1,207.34,11.2,11.2,5.382E-002,18.581,0.300,0.700,AutoCalculate,OFFICEMEDIUM ACTIVITY_SCH,No,3.8200E-008,0,11
 People Internal Gains Nominal, TZ_PERIMETER_TOP_ZN_2 OFFICE WHOLEBUILDING - MD OFFICE PEOPLE,OFFICEMEDIUM BLDG_OCC_SCH,TZ_PERIMETER_TOP_ZN_2,131.26,7.1,7.1,5.382E-002,18.581,0.300,0.700,AutoCalculate,OFFICEMEDIUM ACTIVITY_SCH,No,3.8200E-008,0,7
 People Internal Gains Nominal, TZ_PERIMETER_TOP_ZN_3 OFFICE WHOLEBUILDING - MD OFFICE PEOPLE,OFFICEMEDIUM BLDG_OCC_SCH,TZ_PERIMETER_TOP_ZN_3,207.34,11.2,11.2,5.382E-002,18.581,0.300,0.700,AutoCalculate,OFFICEMEDIUM ACTIVITY_SCH,No,3.8200E-008,0,11
 People Internal Gains Nominal, TZ_PERIMETER_TOP_ZN_4 OFFICE WHOLEBUILDING - MD OFFICE PEOPLE,OFFICEMEDIUM BLDG_OCC_SCH,TZ_PERIMETER_TOP_ZN_4,131.25,7.1,7.1,5.382E-002,18.581,0.300,0.700,AutoCalculate,OFFICEMEDIUM ACTIVITY_SCH,No,3.8200E-008,0,7
! <Lights Internal Gains Nominal>,Name,Schedule Name,Zone Name,Zone Floor Area {m2},# Zone Occupants,Lighting Level {W},Lights/Floor Area {W/m2},Lights per person {W/person},Fraction Return Air,Fraction Radiant,Fraction Short Wave,Fraction Convected,Fraction Replaceable,End-Use Category,Nominal Minimum Lighting Level {W},Nominal Maximum Lighting Level {W}
 Lights Internal Gains Nominal, TZ_CORE_GROUND 90.1-2010 - RETAIL - RETAIL LIGHTS,RETAIL BLDG LIGHT,TZ_CORE_GROUND,983.54,158.8,17785.655,18.083,112.000,0.000,0.000,0.000,1.000,1.000,General,0.000,17785.655
 Lights Internal Gains Nominal, TZ_PERIMETER_GROUND_ZN_1 90.1-2010 - RETAIL - RETAIL LIGHTS,RETAIL BLDG LIGHT,TZ_PERIMETER_GROUND_ZN_1,207.34,33.5,3749.372,18.083,112.000,0.000,0.000,0.000,1.000,1.000,General,0.000,3749.372
 Lights Internal Gains Nominal, TZ_PERIMETER_GROUND_ZN_2 90.1-2010 - RETAIL - RETAIL LIGHTS,RETAIL BLDG LIGHT,TZ_PERIMETER_GROUND_ZN_2,131.26,21.2,2373.663,18.083,112.000,0.000,0.000,0.000,1.000,1.000,General,0.000,2373.663
 Lights Internal Gains Nominal, TZ_PERIMETER_GROUND_ZN_3 90.1-2010 - RETAIL - RETAIL LIGHTS,RETAIL BLDG LIGHT,TZ_PERIMETER_GROUND_ZN_3,207.34,33.5,3749.372,18.083,112.000,0.000,0.000,0.000,1.000,1.000,General,0.000,3749.372
 Lights Internal Gains Nominal, TZ_PERIMETER_GROUND_ZN_4 90.1-2010 - RETAIL - RETAIL LIGHTS,RETAIL BLDG LIGHT,TZ_PERIMETER_GROUND_ZN_4,131.25,21.2,2373.507,18.083,112.000,0.000,0.000,0.000,1.000,1.000,General,0.000,2373.507
 Lights Internal Gains Nominal, TZ_CORE_BOTTOM OFFICE WHOLEBUILDING - MD OFFICE LIGHTS,OFFICEMEDIUM BLDG_LIGHT_SCH_2013,TZ_CORE_BOTTOM,983.54,52.9,8681.094,8.826,164.000,0.000,0.700,0.200,0.100,1.000,General,0.000,8681.094
 Lights Internal Gains Nominal, TZ_CORE_MID OFFICE WHOLEBUILDING - MD OFFICE LIGHTS,OFFICEMEDIUM BLDG_LIGHT_SCH_2013,TZ_CORE_MID,983.54,52.9,8681.094,8.826,164.000,0.000,0.700,0.200,0.100,1.000,General,0.000,8681.094
 Lights Internal Gains Nominal, TZ_CORE_TOP OFFICE WHOLEBUILDING - MD OFFICE LIGHTS,OFFICEMEDIUM BLDG_LIGHT_SCH_2013,TZ_CORE_TOP,983.54,52.9,8681.094,8.826,164.000,0.000,0.700,0.200,0.100,1.000,General,0.000,8681.094
 Lights Internal Gains Nominal, TZ_PERIMETER_BOT_ZN_1 OFFICE WHOLEBUILDING - MD OFFICE LIGHTS,OFFICEMEDIUM BLDG_LIGHT_SCH_2013,TZ_PERIMETER_BOT_ZN_1,207.34,11.2,1830.051,8.826,164.000,0.000,0.700,0.200,0.100,1.000,General,0.000,1830.051
 Lights Internal Gains Nominal, TZ_PERIMETER_BOT_ZN_2 OFFICE WHOLEBUILDING - MD OFFICE LIGHTS,OFFICEMEDIUM BLDG_LIGHT_SCH_2013,TZ_PERIMETER_BOT_ZN_2,131.26,7.1,1158.573,8.826,164.000,0.000,0.700,0.200,0.100,1.000,General,0.000,1158.573
 Lights Internal Gains Nominal, TZ_PERIMETER_BOT_ZN_3 OFFICE WHOLEBUILDING - MD OFFICE LIGHTS,OFFICEMEDIUM BLDG_LIGHT_SCH_2013,TZ_PERIMETER_BOT_ZN_3,207.34,11.2,1830.051,8.826,164.000,0.000,0.700,0.200,0.100,1.000,General,0.000,1830.051
 Lights Internal Gains Nominal, TZ_PERIMETER_BOT_ZN_4 OFFICE WHOLEBUILDING - MD OFFICE LIGHTS,OFFICEMEDIUM BLDG_LIGHT_SCH_2013,TZ_PERIMETER_BOT_ZN_4,131.25,7.1,1158.497,8.826,164.000,0.000,0.700,0.200,0.100,1.000,General,0.000,1158.497
 Lights Internal Gains Nominal, TZ_PERIMETER_MID_ZN_1 OFFICE WHOLEBUILDING - MD OFFICE LIGHTS,OFFICEMEDIUM BLDG_LIGHT_SCH_2013,TZ_PERIMETER_MID_ZN_1,207.34,11.2,1830.051,8.826,164.000,0.000,0.700,0.200,0.100,1.000,General,0.000,1830.051
 Lights Internal Gains Nominal, TZ_PERIMETER_MID_ZN_2 OFFICE WHOLEBUILDING - MD OFFICE LIGHTS,OFFICEMEDIUM BLDG_LIGHT_SCH_2013,TZ_PERIMETER_MID_ZN_2,131.26,7.1,1158.573,8.826,164.000,0.000,0.700,0.200,0.100,1.000,General,0.000,1158.573
 Lights Internal Gains Nominal, TZ_PERIMETER_MID_ZN_3 OFFICE WHOLEBUILDING - MD OFFICE LIGHTS,OFFICEMEDIUM BLDG_LIGHT_SCH_2013,TZ_PERIMETER_MID_ZN_3,207.34,11.2,1830.051,8.826,164.000,0.000,0.700,0.200,0.100,1.000,General,0.000,1830.051
 Lights Internal Gains Nominal, TZ_PERIMETER_MID_ZN_4 OFFICE WHOLEBUILDING - MD OFFICE LIGHTS,OFFICEMEDIUM BLDG_LIGHT_SCH_2013,TZ_PERIMETER_MID_ZN_4,131.25,7.1,1158.497,8.826,164.000,0.000,0.700,0.200,0.100,1.000,General,0.000,1158.497
 Lights Internal Gains Nominal, TZ_PERIMETER_TOP_ZN_1 OFFICE WHOLEBUILDING - MD OFFICE LIGHTS,OFFICEMEDIUM BLDG_LIGHT_SCH_2013,TZ_PERIMETER_TOP_ZN_1,207.34,11.2,1830.051,8.826,164.000,0.000,0.700,0.200,0.100,1.000,General,0.000,1830.051
 Lights Internal Gains Nominal, TZ_PERIMETER_TOP_ZN_2 OFFICE WHOLEBUILDING - MD OFFICE LIGHTS,OFFICEMEDIUM BLDG_LIGHT_SCH_2013,TZ_PERIMETER_TOP_ZN_2,131.26,7.1,1158.573,8.826,164.000,0.000,0.700,0.200,0.100,1.000,General,0.000,1158.573
 Lights Internal Gains Nominal, TZ_PERIMETER_TOP_ZN_3 OFFICE WHOLEBUILDING - MD OFFICE LIGHTS,OFFICEMEDIUM BLDG_LIGHT_SCH_2013,TZ_PERIMETER_TOP_ZN_3,207.34,11.2,1830.051,8.826,164.000,0.000,0.700,0.200,0.100,1.000,General,0.000,1830.051
 Lights Internal Gains Nominal, TZ_PERIMETER_TOP_ZN_4 OFFICE WHOLEBUILDING - MD OFFICE LIGHTS,OFFICEMEDIUM BLDG_LIGHT_SCH_2013,TZ_PERIMETER_TOP_ZN_4,131.25,7.1,1158.497,8.826,164.000,0.000,0.700,0.200,0.100,1.000,General,0.000,1158.497
! <ElectricEquipment Internal Gains Nominal>,Name,Schedule Name,Zone Name,Zone Floor Area {m2},# Zone Occupants,Equipment Level {W},Equipment/Floor Area {W/m2},Equipment per person {W/person},Fraction Latent,Fraction Radiant,Fraction Lost,Fraction Convected,End-Use SubCategory,Nominal Minimum Equipment Level {W},Nominal Maximum Equipment Level {W}
 ElectricEquipment Internal Gains Nominal, 2 ELEVATOR FANS,OFFICEMEDIUM ELEV_LIGHT_FAN_SCH_ADD_DF,TZ_CORE_BOTTOM,983.54,52.9,61.915,6.295E-002,1.170,0.000,0.500,0.000,0.500,General,0.000,42.721
 ElectricEquipment Internal Gains Nominal, 2 ELEVATOR LIFT MOTORS,OFFICEMEDIUM BLDG_ELEVATORS,TZ_CORE_BOTTOM,983.54,52.9,32110.000,32.647,606.610,0.000,0.500,0.000,0.500,General,0.000,22155.900
 ElectricEquipment Internal Gains Nominal, 2 ELEVATOR LIGHTS,OFFICEMEDIUM ELEV_LIGHT_FAN_SCH_ADD_DF,TZ_CORE_BOTTOM,983.54,52.9,64.697,6.578E-002,1.222,0.000,0.500,0.000,0.500,General,0.000,44.641
 ElectricEquipment Internal Gains Nominal, TZ_CORE_GROUND 90.1-2010 - RETAIL - RETAIL ELECTRIC EQUIPMENT,RETAIL BLDG EQUIP,TZ_CORE_GROUND,983.54,158.8,2329.075,2.368,14.667,0.000,0.000,0.000,1.000,General,0.000,2329.075
 ElectricEquipment Internal Gains Nominal, TZ_PERIMETER_GROUND_ZN_1 90.1-2010 - RETAIL - RETAIL ELECTRIC EQUIPMENT,RETAIL BLDG EQUIP,TZ_PERIMETER_GROUND_ZN_1,207.34,33.5,490.989,2.368,14.667,0.000,0.000,0.000,1.000,General,0.000,490.989
 ElectricEquipment Internal Gains Nominal, TZ_PERIMETER_GROUND_ZN_2 90.1-2010 - RETAIL - RETAIL ELECTRIC EQUIPMENT,RETAIL BLDG EQUIP,TZ_PERIMETER_GROUND_ZN_2,131.26,21.2,310.837,2.368,14.667,0.000,0.000,0.000,1.000,General,0.000,310.837
 ElectricEquipment Internal Gains Nominal, TZ_PERIMETER_GROUND_ZN_3 90.1-2010 - RETAIL - RETAIL ELECTRIC EQUIPMENT,RETAIL BLDG EQUIP,TZ_PERIMETER_GROUND_ZN_3,207.34,33.5,490.989,2.368,14.667,0.000,0.000,0.000,1.000,General,0.000,490.989
 ElectricEquipment Internal Gains Nominal, TZ_PERIMETER_GROUND_ZN_4 90.1-2010 - RETAIL - RETAIL ELECTRIC EQUIPMENT,RETAIL BLDG EQUIP,TZ_PERIMETER_GROUND_ZN_4,131.25,21.2,310.817,2.368,14.667,0.000,0.000,0.000,1.000,General,0.000,310.817
 ElectricEquipment Internal Gains Nominal, TZ_CORE_BOTTOM OFFICE WHOLEBUILDING - MD OFFICE ELEC EQUIP,OFFICEMEDIUM BLDG_EQUIP_SCH_2013,TZ_CORE_BOTTOM,983.54,52.9,7940.025,8.073,150.000,0.000,0.500,0.000,0.500,General,0.000,7940.025
 ElectricEquipment Internal Gains Nominal, TZ_CORE_MID OFFICE WHOLEBUILDING - MD OFFICE ELEC EQUIP,OFFICEMEDIUM BLDG_EQUIP_SCH_2013,TZ_CORE_MID,983.54,52.9,7940.025,8.073,150.000,0.000,0.500,0.000,0.500,General,0.000,7940.025
 ElectricEquipment Internal Gains Nominal, TZ_CORE_TOP OFFICE WHOLEBUILDING - MD OFFICE ELEC EQUIP,OFFICEMEDIUM BLDG_EQUIP_SCH_2013,TZ_CORE_TOP,983.54,52.9,7940.025,8.073,150.000,0.000,0.500,0.000,0.500,General,0.000,7940.025
 ElectricEquipment Internal Gains Nominal, TZ_PERIMETER_BOT_ZN_1 OFFICE WHOLEBUILDING - MD OFFICE ELEC EQUIP,OFFICEMEDIUM BLDG_EQUIP_SCH_2013,TZ_PERIMETER_BOT_ZN_1,207.34,11.2,1673.827,8.073,150.000,0.000,0.500,0.000,0.500,General,0.000,1673.827
 ElectricEquipment Internal Gains Nominal, TZ_PERIMETER_BOT_ZN_2 OFFICE WHOLEBUILDING - MD OFFICE ELEC EQUIP,OFFICEMEDIUM BLDG_EQUIP_SCH_2013,TZ_PERIMETER_BOT_ZN_2,131.26,7.1,1059.671,8.073,150.000,0.000,0.500,0.000,0.500,General,0.000,1059.671
 ElectricEquipment Internal Gains Nominal, TZ_PERIMETER_BOT_ZN_3 OFFICE WHOLEBUILDING - MD OFFICE ELEC EQUIP,OFFICEMEDIUM BLDG_EQUIP_SCH_2013,TZ_PERIMETER_BOT_ZN_3,207.34,11.2,1673.827,8.073,150.000,0.000,0.500,0.000,0.500,General,0.000,1673.827
 ElectricEquipment Internal Gains Nominal, TZ_PERIMETER_BOT_ZN_4 OFFICE WHOLEBUILDING - MD OFFICE ELEC EQUIP,OFFICEMEDIUM BLDG_EQUIP_SCH_2013,TZ_PERIMETER_BOT_ZN_4,131.25,7.1,1059.601,8.073,150.000,0.000,0.500,0.000,0.500,General,0.000,1059.601
 ElectricEquipment Internal Gains Nominal, TZ_PERIMETER_MID_ZN_1 OFFICE WHOLEBUILDING - MD OFFICE ELEC EQUIP,OFFICEMEDIUM BLDG_EQUIP_SCH_2013,TZ_PERIMETER_MID_ZN_1,207.34,11.2,1673.827,8.073,150.000,0.000,0.500,0.000,0.500,General,0.000,1673.827
 ElectricEquipment Internal Gains Nominal, TZ_PERIMETER_MID_ZN_2 OFFICE WHOLEBUILDING - MD OFFICE ELEC EQUIP,OFFICEMEDIUM BLDG_EQUIP_SCH_2013,TZ_PERIMETER_MID_ZN_2,131.26,7.1,1059.671,8.073,150.000,0.000,0.500,0.000,0.500,General,0.000,1059.671
 ElectricEquipment Internal Gains Nominal, TZ_PERIMETER_MID_ZN_3 OFFICE WHOLEBUILDING - MD OFFICE ELEC EQUIP,OFFICEMEDIUM BLDG_EQUIP_SCH_2013,TZ_PERIMETER_MID_ZN_3,207.34,11.2,1673.827,8.073,150.000,0.000,0.500,0.000,0.500,General,0.000,1673.827
 ElectricEquipment Internal Gains Nominal, TZ_PERIMETER_MID_ZN_4 OFFICE WHOLEBUILDING - MD OFFICE ELEC EQUIP,OFFICEMEDIUM BLDG_EQUIP_SCH_2013,TZ_PERIMETER_MID_ZN_4,131.25,7.1,1059.601,8.073,150.000,0.000,0.500,0.000,0.500,General,0.000,1059.601
 ElectricEquipment Internal Gains Nominal, TZ_PERIMETER_TOP_ZN_1 OFFICE WHOLEBUILDING - MD OFFICE ELEC EQUIP,OFFICEMEDIUM BLDG_EQUIP_SCH_2013,TZ_PERIMETER_TOP_ZN_1,207.34,11.2,1673.827,8.073,150.000,0.000,0.500,0.000,0.500,General,0.000,1673.827
 ElectricEquipment Internal Gains Nominal, TZ_PERIMETER_TOP_ZN_2 OFFICE WHOLEBUILDING - MD OFFICE ELEC EQUIP,OFFICEMEDIUM BLDG_EQUIP_SCH_2013,TZ_PERIMETER_TOP_ZN_2,131.26,7.1,1059.671,8.073,150.000,0.000,0.500,0.000,0.500,General,0.000,1059.671
 ElectricEquipment Internal Gains Nominal, TZ_PERIMETER_TOP_ZN_3 OFFICE WHOLEBUILDING - MD OFFICE ELEC EQUIP,OFFICEMEDIUM BLDG_EQUIP_SCH_2013,TZ_PERIMETER_TOP_ZN_3,207.34,11.2,1673.827,8.073,150.000,0.000,0.500,0.000,0.500,General,0.000,1673.827
 ElectricEquipment Internal Gains Nominal, TZ_PERIMETER_TOP_ZN_4 OFFICE WHOLEBUILDING - MD OFFICE ELEC EQUIP,OFFICEMEDIUM BLDG_EQUIP_SCH_2013,TZ_PERIMETER_TOP_ZN_4,131.25,7.1,1059.601,8.073,150.000,0.000,0.500,0.000,0.500,General,0.000,1059.601
! <Shadowing/Sun Position Calculations Annual Simulations>, Calculation Method, Value {days}, Allowable Number Figures in Shadow Overlap {}, Polygon Clipping Algorithm, Sky Diffuse Modeling Algorithm, External Shading Calculation Method, Output External Shading Calculation Results, Disable Self-Shading Within Shading Zone Groups, Disable Self-Shading From Shading Zone Groups to Other Zones
Shadowing/Sun Position Calculations Annual Simulations,AverageOverDaysInFrequency,7,15000,SutherlandHodgman,SimpleSkyDiffuseModeling,InternalCalculation,No,No,No
! <Zone/Window Adjacency Daylighting Counts>, Zone Name, Number of Exterior Windows, Number of Exterior Windows in Adjacent Zones
Zone/Window Adjacency Daylighting Counts, TZ_PERIMETER_BOT_ZN_1,1,0
Zone/Window Adjacency Daylighting Counts, TZ_PERIMETER_BOT_ZN_2,1,0
Zone/Window Adjacency Daylighting Counts, TZ_PERIMETER_BOT_ZN_3,1,0
Zone/Window Adjacency Daylighting Counts, TZ_PERIMETER_BOT_ZN_4,1,0
Zone/Window Adjacency Daylighting Counts, TZ_PERIMETER_MID_ZN_1,1,0
Zone/Window Adjacency Daylighting Counts, TZ_PERIMETER_MID_ZN_2,1,0
Zone/Window Adjacency Daylighting Counts, TZ_PERIMETER_MID_ZN_3,1,0
Zone/Window Adjacency Daylighting Counts, TZ_PERIMETER_MID_ZN_4,1,0
Zone/Window Adjacency Daylighting Counts, TZ_PERIMETER_TOP_ZN_1,1,0
Zone/Window Adjacency Daylighting Counts, TZ_PERIMETER_TOP_ZN_2,1,0
Zone/Window Adjacency Daylighting Counts, TZ_PERIMETER_TOP_ZN_3,1,0
Zone/Window Adjacency Daylighting Counts, TZ_PERIMETER_TOP_ZN_4,1,0
! <Zone/Window Adjacency Daylighting Matrix>, Zone Name, Number of Adjacent Zones with Windows,Adjacent Zone Names - 1st 100 (max)
Zone/Window Adjacency Daylighting Matrix, TZ_PERIMETER_BOT_ZN_1,0
Zone/Window Adjacency Daylighting Matrix, TZ_PERIMETER_BOT_ZN_2,0
Zone/Window Adjacency Daylighting Matrix, TZ_PERIMETER_BOT_ZN_3,0
Zone/Window Adjacency Daylighting Matrix, TZ_PERIMETER_BOT_ZN_4,0
Zone/Window Adjacency Daylighting Matrix, TZ_PERIMETER_MID_ZN_1,0
Zone/Window Adjacency Daylighting Matrix, TZ_PERIMETER_MID_ZN_2,0
Zone/Window Adjacency Daylighting Matrix, TZ_PERIMETER_MID_ZN_3,0
Zone/Window Adjacency Daylighting Matrix, TZ_PERIMETER_MID_ZN_4,0
Zone/Window Adjacency Daylighting Matrix, TZ_PERIMETER_TOP_ZN_1,0
Zone/Window Adjacency Daylighting Matrix, TZ_PERIMETER_TOP_ZN_2,0
Zone/Window Adjacency Daylighting Matrix, TZ_PERIMETER_TOP_ZN_3,0
Zone/Window Adjacency Daylighting Matrix, TZ_PERIMETER_TOP_ZN_4,0
! <Water Heater Information>,Type,Name,Volume {m3},Maximum Capacity {W},Standard Rated Recovery Efficiency, Standard Rated Energy Factor
! <ZoneInfiltration Airflow Stats Nominal>,Name,Schedule Name,Zone Name, Zone Floor Area {m2}, # Zone Occupants,Design Volume Flow Rate {m3/s},Volume Flow Rate/Floor Area {m3/s-m2},Volume Flow Rate/Exterior Surface Area {m3/s-m2},ACH - Air Changes per Hour,Equation A - Constant Term Coefficient {},Equation B - Temperature Term Coefficient {1/C},Equation C - Velocity Term Coefficient {s/m}, Equation D - Velocity Squared Term Coefficient {s2/m2}
 ZoneInfiltration Airflow Stats Nominal, FIRSTFLOOR_PLENUM INFILTRATION,ALWAYS ON DISCRETE,TZ_FIRSTFLOOR_PLENUM,1660.73,0.0,0.116,6.957E-005,5.696E-004,0.205,0.000,0.000,0.224,0.000
 ZoneInfiltration Airflow Stats Nominal, MIDFLOOR_PLENUM INFILTRATION,ALWAYS ON DISCRETE,TZ_MIDFLOOR_PLENUM,1660.73,0.0,0.116,6.957E-005,5.696E-004,0.205,0.000,0.000,0.224,0.000
 ZoneInfiltration Airflow Stats Nominal, ENTRY DOOR INFILTRATION,OFFICEMEDIUM INFIL_DOOR_OPENING_SCH,TZ_PERIMETER_BOT_ZN_1,207.34,11.2,0.679,3.273E-003,4.957E-003,4.296,1.000,0.000,0.000,0.000
 ZoneInfiltration Airflow Stats Nominal, PERIMETER_BOT_ZN_1 INFILTRATION,OFFICEMEDIUM INFIL_SCH_PNNL,TZ_PERIMETER_BOT_ZN_1,207.34,11.2,7.798E-002,3.761E-004,5.696E-004,0.494,0.000,0.000,0.224,0.000
 ZoneInfiltration Airflow Stats Nominal, PERIMETER_BOT_ZN_2 INFILTRATION,OFFICEMEDIUM INFIL_SCH_PNNL,TZ_PERIMETER_BOT_ZN_2,131.26,7.1,5.199E-002,3.961E-004,5.696E-004,0.520,0.000,0.000,0.224,0.000
 ZoneInfiltration Airflow Stats Nominal, PERIMETER_BOT_ZN_3 INFILTRATION,OFFICEMEDIUM INFIL_SCH_PNNL,TZ_PERIMETER_BOT_ZN_3,207.34,11.2,7.798E-002,3.761E-004,5.696E-004,0.494,0.000,0.000,0.224,0.000
 ZoneInfiltration Airflow Stats Nominal, PERIMETER_BOT_ZN_4 INFILTRATION,OFFICEMEDIUM INFIL_SCH_PNNL,TZ_PERIMETER_BOT_ZN_4,131.25,7.1,5.199E-002,3.961E-004,5.696E-004,0.520,0.000,0.000,0.224,0.000
 ZoneInfiltration Airflow Stats Nominal, PERIMETER_MID_ZN_1 INFILTRATION,OFFICEMEDIUM INFIL_SCH_PNNL,TZ_PERIMETER_MID_ZN_1,207.34,11.2,7.798E-002,3.761E-004,5.696E-004,0.494,0.000,0.000,0.224,0.000
 ZoneInfiltration Airflow Stats Nominal, PERIMETER_MID_ZN_2 INFILTRATION,OFFICEMEDIUM INFIL_SCH_PNNL,TZ_PERIMETER_MID_ZN_2,131.26,7.1,5.199E-002,3.961E-004,5.696E-004,0.520,0.000,0.000,0.224,0.000
 ZoneInfiltration Airflow Stats Nominal, PERIMETER_MID_ZN_3 INFILTRATION,OFFICEMEDIUM INFIL_SCH_PNNL,TZ_PERIMETER_MID_ZN_3,207.34,11.2,7.798E-002,3.761E-004,5.696E-004,0.494,0.000,0.000,0.224,0.000
 ZoneInfiltration Airflow Stats Nominal, PERIMETER_MID_ZN_4 INFILTRATION,OFFICEMEDIUM INFIL_SCH_PNNL,TZ_PERIMETER_MID_ZN_4,131.25,7.1,5.199E-002,3.961E-004,5.696E-004,0.520,0.000,0.000,0.224,0.000
 ZoneInfiltration Airflow Stats Nominal, PERIMETER_TOP_ZN_1 INFILTRATION,OFFICEMEDIUM INFIL_SCH_PNNL,TZ_PERIMETER_TOP_ZN_1,207.34,11.2,7.798E-002,3.761E-004,5.696E-004,0.494,0.000,0.000,0.224,0.000
 ZoneInfiltration Airflow Stats Nominal, PERIMETER_TOP_ZN_2 INFILTRATION,OFFICEMEDIUM INFIL_SCH_PNNL,TZ_PERIMETER_TOP_ZN_2,131.26,7.1,5.199E-002,3.961E-004,5.696E-004,0.520,0.000,0.000,0.224,0.000
 ZoneInfiltration Airflow Stats Nominal, PERIMETER_TOP_ZN_3 INFILTRATION,OFFICEMEDIUM INFIL_SCH_PNNL,TZ_PERIMETER_TOP_ZN_3,207.34,11.2,7.798E-002,3.761E-004,5.696E-004,0.494,0.000,0.000,0.224,0.000
 ZoneInfiltration Airflow Stats Nominal, PERIMETER_TOP_ZN_4 INFILTRATION,OFFICEMEDIUM INFIL_SCH_PNNL,TZ_PERIMETER_TOP_ZN_4,131.25,7.1,5.199E-002,3.961E-004,5.696E-004,0.520,0.000,0.000,0.224,0.000
 ZoneInfiltration Airflow Stats Nominal, TOPFLOOR_PLENUM INFILTRATION,ALWAYS ON DISCRETE,TZ_TOPFLOOR_PLENUM,1660.73,0.0,0.116,6.957E-005,6.199E-005,0.205,0.000,0.000,0.224,0.000
 ZoneInfiltration Airflow Stats Nominal, TZ_CORE_GROUND 90.1-2010 - RETAIL - RETAIL INFILTRATION,RETAIL INFIL HALF ON,TZ_CORE_GROUND,983.54,158.8,0.000,0.000,N/A,0.000,1.000,0.000,0.000,0.000
 ZoneInfiltration Airflow Stats Nominal, TZ_PERIMETER_GROUND_ZN_1 90.1-2010 - RETAIL - RETAIL INFILTRATION,RETAIL INFIL HALF ON,TZ_PERIMETER_GROUND_ZN_1,207.34,33.5,4.481E-002,2.161E-004,2.266E-004,0.196,1.000,0.000,0.000,0.000
 ZoneInfiltration Airflow Stats Nominal, TZ_PERIMETER_GROUND_ZN_2 90.1-2010 - RETAIL - RETAIL INFILTRATION,RETAIL INFIL HALF ON,TZ_PERIMETER_GROUND_ZN_2,131.26,21.2,2.987E-002,2.276E-004,2.266E-004,0.207,1.000,0.000,0.000,0.000
 ZoneInfiltration Airflow Stats Nominal, TZ_PERIMETER_GROUND_ZN_3 90.1-2010 - RETAIL - RETAIL INFILTRATION,RETAIL INFIL HALF ON,TZ_PERIMETER_GROUND_ZN_3,207.34,33.5,4.481E-002,2.161E-004,2.266E-004,0.196,1.000,0.000,0.000,0.000
 ZoneInfiltration Airflow Stats Nominal, TZ_PERIMETER_GROUND_ZN_4 90.1-2010 - RETAIL - RETAIL INFILTRATION,RETAIL INFIL HALF ON,TZ_PERIMETER_GROUND_ZN_4,131.25,21.2,2.987E-002,2.276E-004,2.266E-004,0.207,1.000,0.000,0.000,0.000
! <AirFlow Model>, Simple
 AirFlow Model, Simple
! <RoomAir Model>, Zone Name, Mixing/Mundt/UCSDDV/UCSDCV/UCSDUFI/UCSDUFE/User Defined
RoomAir Model,TZ_CORE_BOTTOM,Mixing/Well-Stirred
RoomAir Model,TZ_CORE_GROUND,Mixing/Well-Stirred
RoomAir Model,TZ_CORE_MID,Mixing/Well-Stirred
RoomAir Model,TZ_CORE_TOP,Mixing/Well-Stirred
RoomAir Model,TZ_FIRSTFLOOR_PLENUM,Mixing/Well-Stirred
RoomAir Model,TZ_GROUNDFLOOR_PLENUM,Mixing/Well-Stirred
RoomAir Model,TZ_MIDFLOOR_PLENUM,Mixing/Well-Stirred
RoomAir Model,TZ_PERIMETER_BOT_ZN_1,Mixing/Well-Stirred
RoomAir Model,TZ_PERIMETER_BOT_ZN_2,Mixing/Well-Stirred
RoomAir Model,TZ_PERIMETER_BOT_ZN_3,Mixing/Well-Stirred
RoomAir Model,TZ_PERIMETER_BOT_ZN_4,Mixing/Well-Stirred
RoomAir Model,TZ_PERIMETER_GROUND_ZN_1,Mixing/Well-Stirred
RoomAir Model,TZ_PERIMETER_GROUND_ZN_2,Mixing/Well-Stirred
RoomAir Model,TZ_PERIMETER_GROUND_ZN_3,Mixing/Well-Stirred
RoomAir Model,TZ_PERIMETER_GROUND_ZN_4,Mixing/Well-Stirred
RoomAir Model,TZ_PERIMETER_MID_ZN_1,Mixing/Well-Stirred
RoomAir Model,TZ_PERIMETER_MID_ZN_2,Mixing/Well-Stirred
RoomAir Model,TZ_PERIMETER_MID_ZN_3,Mixing/Well-Stirred
RoomAir Model,TZ_PERIMETER_MID_ZN_4,Mixing/Well-Stirred
RoomAir Model,TZ_PERIMETER_TOP_ZN_1,Mixing/Well-Stirred
RoomAir Model,TZ_PERIMETER_TOP_ZN_2,Mixing/Well-Stirred
RoomAir Model,TZ_PERIMETER_TOP_ZN_3,Mixing/Well-Stirred
RoomAir Model,TZ_PERIMETER_TOP_ZN_4,Mixing/Well-Stirred
RoomAir Model,TZ_TOPFLOOR_PLENUM,Mixing/Well-Stirred
! <AirflowNetwork Model:Control>, No Multizone or Distribution/Multizone with Distribution/Multizone without Distribution/Multizone with Distribution only during Fan Operation
AirflowNetwork Model:Control,NoMultizoneOrDistribution
! <Zone Volume Capacitance Multiplier>, Sensible Heat Capacity Multiplier, Moisture Capacity Multiplier, Carbon Dioxide Capacity Multiplier, Generic Contaminant Capacity Multiplier
Zone Volume Capacitance Multiplier,   1.000 ,   1.000,   1.000,   1.000
! <Zone Sizing DOAS Inputs>, Zone Name, DOAS Design Control Strategy, DOAS Design Low Setpoint Temperature {C}, DOAS Design High Setpoint Temperature {C} 
 Zone Sizing DOAS Inputs, TZ_CORE_BOTTOM, NeutralSupplyAir, 15.556, 21.111
 Zone Sizing DOAS Inputs, TZ_CORE_GROUND, NeutralSupplyAir, 15.556, 21.111
 Zone Sizing DOAS Inputs, TZ_CORE_MID, NeutralSupplyAir, 15.556, 21.111
 Zone Sizing DOAS Inputs, TZ_CORE_TOP, NeutralSupplyAir, 15.556, 21.111
 Zone Sizing DOAS Inputs, TZ_PERIMETER_BOT_ZN_1, NeutralSupplyAir, 15.556, 21.111
 Zone Sizing DOAS Inputs, TZ_PERIMETER_BOT_ZN_2, NeutralSupplyAir, 15.556, 21.111
 Zone Sizing DOAS Inputs, TZ_PERIMETER_BOT_ZN_3, NeutralSupplyAir, 15.556, 21.111
 Zone Sizing DOAS Inputs, TZ_PERIMETER_BOT_ZN_4, NeutralSupplyAir, 15.556, 21.111
 Zone Sizing DOAS Inputs, TZ_PERIMETER_GROUND_ZN_1, NeutralSupplyAir, 15.556, 21.111
 Zone Sizing DOAS Inputs, TZ_PERIMETER_GROUND_ZN_2, NeutralSupplyAir, 15.556, 21.111
 Zone Sizing DOAS Inputs, TZ_PERIMETER_GROUND_ZN_3, NeutralSupplyAir, 15.556, 21.111
 Zone Sizing DOAS Inputs, TZ_PERIMETER_GROUND_ZN_4, NeutralSupplyAir, 15.556, 21.111
 Zone Sizing DOAS Inputs, TZ_PERIMETER_MID_ZN_1, NeutralSupplyAir, 15.556, 21.111
 Zone Sizing DOAS Inputs, TZ_PERIMETER_MID_ZN_2, NeutralSupplyAir, 15.556, 21.111
 Zone Sizing DOAS Inputs, TZ_PERIMETER_MID_ZN_3, NeutralSupplyAir, 15.556, 21.111
 Zone Sizing DOAS Inputs, TZ_PERIMETER_MID_ZN_4, NeutralSupplyAir, 15.556, 21.111
 Zone Sizing DOAS Inputs, TZ_PERIMETER_TOP_ZN_1, NeutralSupplyAir, 15.556, 21.111
 Zone Sizing DOAS Inputs, TZ_PERIMETER_TOP_ZN_2, NeutralSupplyAir, 15.556, 21.111
 Zone Sizing DOAS Inputs, TZ_PERIMETER_TOP_ZN_3, NeutralSupplyAir, 15.556, 21.111
 Zone Sizing DOAS Inputs, TZ_PERIMETER_TOP_ZN_4, NeutralSupplyAir, 15.556, 21.111
! <Load Timesteps in Zone Design Calculation Averaging Window>, Value
 Load Timesteps in Zone Design Calculation Averaging Window,    6
! <Heating Sizing Factor Information>, Sizing Factor ID, Value
 Heating Sizing Factor Information, Global,   1.0000    
! <Cooling Sizing Factor Information>, Sizing Factor ID, Value
 Cooling Sizing Factor Information, Global,   1.0000    
! <Sky Daylight Factors>, MonthAndDay, Zone Name, Window Name, Daylight Fac: Ref Pt #1, Daylight Fac: Ref Pt #2
 Clear Sky Daylight Factors,07/21,TZ_PERIMETER_BOT_ZN_1,PERIMETER_BOT_ZN_1 - WALL 180_A - SUB:A,7.7213E-002,3.6727E-002
 Clear Turbid Sky Daylight Factors,07/21,TZ_PERIMETER_BOT_ZN_1,PERIMETER_BOT_ZN_1 - WALL 180_A - SUB:A,7.4415E-002,3.3910E-002
 Intermediate Sky Daylight Factors,07/21,TZ_PERIMETER_BOT_ZN_1,PERIMETER_BOT_ZN_1 - WALL 180_A - SUB:A,5.9918E-002,2.4501E-002
 Overcast Sky Daylight Factors,07/21,TZ_PERIMETER_BOT_ZN_1,PERIMETER_BOT_ZN_1 - WALL 180_A - SUB:A,5.2979E-002,2.1484E-002
 Clear Sky Daylight Factors,07/21,TZ_PERIMETER_BOT_ZN_2,PERIMETER_BOT_ZN_2 - WALL 090_A - SUB:A,5.3391E-002,2.7620E-002
 Clear Turbid Sky Daylight Factors,07/21,TZ_PERIMETER_BOT_ZN_2,PERIMETER_BOT_ZN_2 - WALL 090_A - SUB:A,4.6986E-002,2.3639E-002
 Intermediate Sky Daylight Factors,07/21,TZ_PERIMETER_BOT_ZN_2,PERIMETER_BOT_ZN_2 - WALL 090_A - SUB:A,3.8036E-002,1.6523E-002
 Overcast Sky Daylight Factors,07/21,TZ_PERIMETER_BOT_ZN_2,PERIMETER_BOT_ZN_2 - WALL 090_A - SUB:A,5.3492E-002,2.1803E-002
 Clear Sky Daylight Factors,07/21,TZ_PERIMETER_BOT_ZN_3,PERIMETER_BOT_ZN_3 - WALL 000_A - SUB:A,4.1696E-002,2.3166E-002
 Clear Turbid Sky Daylight Factors,07/21,TZ_PERIMETER_BOT_ZN_3,PERIMETER_BOT_ZN_3 - WALL 000_A - SUB:A,3.4161E-002,1.8696E-002
 Intermediate Sky Daylight Factors,07/21,TZ_PERIMETER_BOT_ZN_3,PERIMETER_BOT_ZN_3 - WALL 000_A - SUB:A,2.4486E-002,1.1116E-002
 Overcast Sky Daylight Factors,07/21,TZ_PERIMETER_BOT_ZN_3,PERIMETER_BOT_ZN_3 - WALL 000_A - SUB:A,5.2979E-002,2.1484E-002
 Clear Sky Daylight Factors,07/21,TZ_PERIMETER_BOT_ZN_4,PERIMETER_BOT_ZN_4 - WALL 270_A - SUB:A,5.4180E-002,2.7924E-002
 Clear Turbid Sky Daylight Factors,07/21,TZ_PERIMETER_BOT_ZN_4,PERIMETER_BOT_ZN_4 - WALL 270_A - SUB:A,4.7872E-002,2.3977E-002
 Intermediate Sky Daylight Factors,07/21,TZ_PERIMETER_BOT_ZN_4,PERIMETER_BOT_ZN_4 - WALL 270_A - SUB:A,3.8843E-002,1.6831E-002
 Overcast Sky Daylight Factors,07/21,TZ_PERIMETER_BOT_ZN_4,PERIMETER_BOT_ZN_4 - WALL 270_A - SUB:A,5.3492E-002,2.1804E-002
 Clear Sky Daylight Factors,07/21,TZ_PERIMETER_MID_ZN_1,PERIMETER_MID_ZN_1 - WALL 180_A - SUB:A,7.8066E-002,3.7580E-002
 Clear Turbid Sky Daylight Factors,07/21,TZ_PERIMETER_MID_ZN_1,PERIMETER_MID_ZN_1 - WALL 180_A - SUB:A,7.5229E-002,3.4724E-002
 Intermediate Sky Daylight Factors,07/21,TZ_PERIMETER_MID_ZN_1,PERIMETER_MID_ZN_1 - WALL 180_A - SUB:A,6.0512E-002,2.5095E-002
 Overcast Sky Daylight Factors,07/21,TZ_PERIMETER_MID_ZN_1,PERIMETER_MID_ZN_1 - WALL 180_A - SUB:A,5.3411E-002,2.1915E-002
 Clear Sky Daylight Factors,07/21,TZ_PERIMETER_MID_ZN_2,PERIMETER_MID_ZN_2 - WALL 090_A - SUB:A,5.3932E-002,2.8161E-002
 Clear Turbid Sky Daylight Factors,07/21,TZ_PERIMETER_MID_ZN_2,PERIMETER_MID_ZN_2 - WALL 090_A - SUB:A,4.7431E-002,2.4085E-002
 Intermediate Sky Daylight Factors,07/21,TZ_PERIMETER_MID_ZN_2,PERIMETER_MID_ZN_2 - WALL 090_A - SUB:A,3.8327E-002,1.6814E-002
 Overcast Sky Daylight Factors,07/21,TZ_PERIMETER_MID_ZN_2,PERIMETER_MID_ZN_2 - WALL 090_A - SUB:A,5.3935E-002,2.2246E-002
 Clear Sky Daylight Factors,07/21,TZ_PERIMETER_MID_ZN_3,PERIMETER_MID_ZN_3 - WALL 000_A - SUB:A,4.2072E-002,2.3543E-002
 Clear Turbid Sky Daylight Factors,07/21,TZ_PERIMETER_MID_ZN_3,PERIMETER_MID_ZN_3 - WALL 000_A - SUB:A,3.4425E-002,1.8960E-002
 Intermediate Sky Daylight Factors,07/21,TZ_PERIMETER_MID_ZN_3,PERIMETER_MID_ZN_3 - WALL 000_A - SUB:A,2.4590E-002,1.1221E-002
 Overcast Sky Daylight Factors,07/21,TZ_PERIMETER_MID_ZN_3,PERIMETER_MID_ZN_3 - WALL 000_A - SUB:A,5.3411E-002,2.1915E-002
 Clear Sky Daylight Factors,07/21,TZ_PERIMETER_MID_ZN_4,PERIMETER_MID_ZN_4 - WALL 270_A - SUB:A,5.4732E-002,2.8476E-002
 Clear Turbid Sky Daylight Factors,07/21,TZ_PERIMETER_MID_ZN_4,PERIMETER_MID_ZN_4 - WALL 270_A - SUB:A,4.8330E-002,2.4435E-002
 Intermediate Sky Daylight Factors,07/21,TZ_PERIMETER_MID_ZN_4,PERIMETER_MID_ZN_4 - WALL 270_A - SUB:A,3.9145E-002,1.7134E-002
 Overcast Sky Daylight Factors,07/21,TZ_PERIMETER_MID_ZN_4,PERIMETER_MID_ZN_4 - WALL 270_A - SUB:A,5.3935E-002,2.2247E-002
 Clear Sky Daylight Factors,07/21,TZ_PERIMETER_TOP_ZN_1,PERIMETER_TOP_ZN_1 - WALL 180_A - SUB:A,7.8066E-002,3.7580E-002
 Clear Turbid Sky Daylight Factors,07/21,TZ_PERIMETER_TOP_ZN_1,PERIMETER_TOP_ZN_1 - WALL 180_A - SUB:A,7.5229E-002,3.4724E-002
 Intermediate Sky Daylight Factors,07/21,TZ_PERIMETER_TOP_ZN_1,PERIMETER_TOP_ZN_1 - WALL 180_A - SUB:A,6.0512E-002,2.5095E-002
 Overcast Sky Daylight Factors,07/21,TZ_PERIMETER_TOP_ZN_1,PERIMETER_TOP_ZN_1 - WALL 180_A - SUB:A,5.3411E-002,2.1915E-002
 Clear Sky Daylight Factors,07/21,TZ_PERIMETER_TOP_ZN_2,PERIMETER_TOP_ZN_2 - WALL 090_A - SUB:A,5.3932E-002,2.8161E-002
 Clear Turbid Sky Daylight Factors,07/21,TZ_PERIMETER_TOP_ZN_2,PERIMETER_TOP_ZN_2 - WALL 090_A - SUB:A,4.7431E-002,2.4085E-002
 Intermediate Sky Daylight Factors,07/21,TZ_PERIMETER_TOP_ZN_2,PERIMETER_TOP_ZN_2 - WALL 090_A - SUB:A,3.8327E-002,1.6814E-002
 Overcast Sky Daylight Factors,07/21,TZ_PERIMETER_TOP_ZN_2,PERIMETER_TOP_ZN_2 - WALL 090_A - SUB:A,5.3935E-002,2.2246E-002
 Clear Sky Daylight Factors,07/21,TZ_PERIMETER_TOP_ZN_3,PERIMETER_TOP_ZN_3 - WALL 000_A - SUB:A,4.2072E-002,2.3543E-002
 Clear Turbid Sky Daylight Factors,07/21,TZ_PERIMETER_TOP_ZN_3,PERIMETER_TOP_ZN_3 - WALL 000_A - SUB:A,3.4425E-002,1.8960E-002
 Intermediate Sky Daylight Factors,07/21,TZ_PERIMETER_TOP_ZN_3,PERIMETER_TOP_ZN_3 - WALL 000_A - SUB:A,2.4590E-002,1.1221E-002
 Overcast Sky Daylight Factors,07/21,TZ_PERIMETER_TOP_ZN_3,PERIMETER_TOP_ZN_3 - WALL 000_A - SUB:A,5.3411E-002,2.1915E-002
 Clear Sky Daylight Factors,07/21,TZ_PERIMETER_TOP_ZN_4,PERIMETER_TOP_ZN_4 - WALL 270_A - SUB:A,5.4732E-002,2.8476E-002
 Clear Turbid Sky Daylight Factors,07/21,TZ_PERIMETER_TOP_ZN_4,PERIMETER_TOP_ZN_4 - WALL 270_A - SUB:A,4.8330E-002,2.4435E-002
 Intermediate Sky Daylight Factors,07/21,TZ_PERIMETER_TOP_ZN_4,PERIMETER_TOP_ZN_4 - WALL 270_A - SUB:A,3.9145E-002,1.7134E-002
 Overcast Sky Daylight Factors,07/21,TZ_PERIMETER_TOP_ZN_4,PERIMETER_TOP_ZN_4 - WALL 270_A - SUB:A,5.3935E-002,2.2247E-002
! <Zone Sizing Information>, Zone Name, Load Type, Calc Des Load {W}, User Des Load {W}, Calc Des Air Flow Rate {m3/s}, User Des Air Flow Rate {m3/s}, Design Day Name, Date/Time of Peak, Temperature at Peak {C}, Humidity Ratio at Peak {kgWater/kgDryAir}, Floor Area {m2}, # Occupants, Calc Outdoor Air Flow Rate {m3/s}, Calc DOAS Heat Addition Rate {W}
 Zone Sizing Information, TZ_CORE_BOTTOM, Cooling, 50268.26285, 50268.26285, 3.70415, 3.70415, CHICAGO OHARE INTL AP ANN CLG .4% CONDNS DB=>MWB, 7/21 08:00:00, 25.53000, 1.49611E-002, 983.53657, 52.93350, 0.42469, -1293.35897
 Zone Sizing Information, TZ_CORE_BOTTOM, Heating, 15143.43572, 15143.43572, 0.43538, 0.43538, CHICAGO OHARE INTL AP ANN HTG 99.6% CONDNS DB, 1/21 08:20:00, -20.00000, 6.49857E-004, 983.53657, 52.93350, 0.42469, -2322.71388
 Zone Sizing Information, TZ_CORE_GROUND, Cooling, 47742.58488, 47742.58488, 3.59694, 3.59694, CHICAGO OHARE INTL AP ANN CLG .4% CONDNS DB=>MWB, 7/21 07:00:00, 23.74500, 1.49611E-002, 983.53657, 158.80049, 1.16166, -3678.41864
 Zone Sizing Information, TZ_CORE_GROUND, Heating, 1494.67506, 1494.67506, 0.12221, 1.16166, CHICAGO OHARE INTL AP ANN CLG .4% CONDNS DB=>MWB, 7/21 23:30:00, 25.05750, 1.49611E-002, 983.53657, 158.80049, 1.16166, -10611.61475
 Zone Sizing Information, TZ_CORE_MID, Cooling, 30264.18597, 30264.18597, 2.22718, 2.22718, CHICAGO OHARE INTL AP ANN CLG .4% CONDNS DB=>MWB, 7/21 08:00:00, 25.53000, 1.49611E-002, 983.53657, 52.93350, 0.42469, -1292.10706
 Zone Sizing Information, TZ_CORE_MID, Heating, 17815.84348, 17815.84348, 0.51219, 0.51219, CHICAGO OHARE INTL AP ANN HTG 99.6% CONDNS DB, 1/21 08:20:00, -20.00000, 6.49857E-004, 983.53657, 52.93350, 0.42469, -2322.37711
 Zone Sizing Information, TZ_CORE_TOP, Cooling, 30512.54104, 30512.54104, 2.24550, 2.24550, CHICAGO OHARE INTL AP ANN CLG .4% CONDNS DB=>MWB, 7/21 08:00:00, 25.53000, 1.49611E-002, 983.53657, 52.93350, 0.42469, -1292.13294
 Zone Sizing Information, TZ_CORE_TOP, Heating, 29173.93066, 29173.93066, 0.83461, 0.83461, CHICAGO OHARE INTL AP ANN HTG 99.6% CONDNS DB, 1/21 08:00:00, -20.00000, 6.49857E-004, 983.53657, 52.93350, 0.42469, -2303.34621
 Zone Sizing Information, TZ_PERIMETER_BOT_ZN_1, Cooling, 12096.27157, 12096.27157, 0.89837, 0.89837, CHICAGO OHARE INTL AP ANN CLG .4% CONDNS DB=>MWB, 7/21 13:00:00, 32.77500, 1.49611E-002, 207.33814, 11.15885, 8.95286E-002, -266.57912
 Zone Sizing Information, TZ_PERIMETER_BOT_ZN_1, Heating, 10340.91287, 10340.91287, 0.29621, 0.29621, CHICAGO OHARE INTL AP ANN HTG 99.6% CONDNS DB, 1/21 08:00:00, -20.00000, 6.49857E-004, 207.33814, 11.15885, 8.95286E-002, -485.15909
 Zone Sizing Information, TZ_PERIMETER_BOT_ZN_2, Cooling, 11245.27051, 11245.27051, 0.82933, 0.82933, CHICAGO OHARE INTL AP ANN CLG .4% CONDNS DB=>MWB, 7/21 08:00:00, 25.53000, 1.49611E-002, 131.26219, 7.06447, 5.66790E-002, -172.79646
 Zone Sizing Information, TZ_PERIMETER_BOT_ZN_2, Heating, 6714.42870, 6714.42870, 0.19234, 0.19234, CHICAGO OHARE INTL AP ANN HTG 99.6% CONDNS DB, 1/21 08:00:00, -20.00000, 6.49857E-004, 131.26219, 7.06447, 5.66790E-002, -307.14728
 Zone Sizing Information, TZ_PERIMETER_BOT_ZN_3, Cooling, 8340.21907, 8340.21907, 0.61941, 0.61941, CHICAGO OHARE INTL AP ANN CLG .4% CONDNS DB=>MWB, 7/21 14:10:00, 33.30000, 1.49611E-002, 207.33814, 11.15885, 8.95286E-002, -266.57712
 Zone Sizing Information, TZ_PERIMETER_BOT_ZN_3, Heating, 10223.72096, 10223.72096, 0.29284, 0.29284, CHICAGO OHARE INTL AP ANN HTG 99.6% CONDNS DB, 1/21 08:00:00, -20.00000, 6.49857E-004, 207.33814, 11.15885, 8.95286E-002, -485.15828
 Zone Sizing Information, TZ_PERIMETER_BOT_ZN_4, Cooling, 11117.95082, 11117.95082, 0.82570, 0.82570, CHICAGO OHARE INTL AP ANN CLG .4% CONDNS DB=>MWB, 7/21 16:50:00, 31.97000, 1.49611E-002, 131.25358, 7.06401, 5.66753E-002, -168.75976
 Zone Sizing Information, TZ_PERIMETER_BOT_ZN_4, Heating, 6803.98003, 6803.98003, 0.19491, 0.19491, CHICAGO OHARE INTL AP ANN HTG 99.6% CONDNS DB, 1/21 08:00:00, -20.00000, 6.49857E-004, 131.25358, 7.06401, 5.66753E-002, -307.12690
 Zone Sizing Information, TZ_PERIMETER_GROUND_ZN_1, Cooling, 19202.95184, 19202.95184, 1.60109, 1.60109, CHICAGO OHARE INTL AP ANN CLG .4% CONDNS DB=>MWB, 7/21 12:50:00, 32.63500, 1.49611E-002, 207.33814, 33.47654, 0.24489, -728.29248
 Zone Sizing Information, TZ_PERIMETER_GROUND_ZN_1, Heating, 10407.10671, 10407.10671, 0.45653, 0.45653, CHICAGO OHARE INTL AP ANN HTG 99.6% CONDNS DB, 1/21 13:50:00, -20.00000, 6.49857E-004, 207.33814, 33.47654, 0.24489, -1338.48087
 Zone Sizing Information, TZ_PERIMETER_GROUND_ZN_2, Cooling, 19186.72756, 19186.72756, 1.59971, 1.59971, CHICAGO OHARE INTL AP ANN CLG .4% CONDNS DB=>MWB, 7/21 08:40:00, 26.86000, 1.49611E-002, 131.26219, 21.19342, 0.15503, -461.09317
 Zone Sizing Information, TZ_PERIMETER_GROUND_ZN_2, Heating, 6909.29734, 6909.29734, 0.30309, 0.30309, CHICAGO OHARE INTL AP ANN HTG 99.6% CONDNS DB, 1/21 13:50:00, -20.00000, 6.49857E-004, 131.26219, 21.19342, 0.15503, -847.35581
 Zone Sizing Information, TZ_PERIMETER_GROUND_ZN_3, Cooling, 13081.99894, 13081.99894, 1.00701, 1.00701, CHICAGO OHARE INTL AP ANN CLG .4% CONDNS DB=>MWB, 7/21 07:00:00, 23.74500, 1.49611E-002, 207.33814, 33.47654, 0.24489, -781.73138
 Zone Sizing Information, TZ_PERIMETER_GROUND_ZN_3, Heating, 10407.09751, 10407.09751, 0.45653, 0.45653, CHICAGO OHARE INTL AP ANN HTG 99.6% CONDNS DB, 1/21 13:50:00, -20.00000, 6.49857E-004, 207.33814, 33.47654, 0.24489, -1338.48087
 Zone Sizing Information, TZ_PERIMETER_GROUND_ZN_4, Cooling, 19653.39918, 19653.39918, 1.63862, 1.63862, CHICAGO OHARE INTL AP ANN CLG .4% CONDNS DB=>MWB, 7/21 16:40:00, 32.11000, 1.49611E-002, 131.25358, 21.19203, 0.15502, -461.06066
 Zone Sizing Information, TZ_PERIMETER_GROUND_ZN_4, Heating, 7041.26345, 7041.26345, 0.30888, 0.30888, CHICAGO OHARE INTL AP ANN HTG 99.6% CONDNS DB, 1/21 13:50:00, -20.00000, 6.49857E-004, 131.25358, 21.19203, 0.15502, -847.29200
 Zone Sizing Information, TZ_PERIMETER_MID_ZN_1, Cooling, 11783.06223, 11783.06223, 0.87511, 0.87511, CHICAGO OHARE INTL AP ANN CLG .4% CONDNS DB=>MWB, 7/21 13:00:00, 32.77500, 1.49611E-002, 207.33814, 11.15885, 8.95286E-002, -266.57420
 Zone Sizing Information, TZ_PERIMETER_MID_ZN_1, Heating, 10977.18532, 10977.18532, 0.31447, 0.31447, CHICAGO OHARE INTL AP ANN HTG 99.6% CONDNS DB, 1/21 08:00:00, -20.00000, 6.49857E-004, 207.33814, 11.15885, 8.95286E-002, -485.15281
 Zone Sizing Information, TZ_PERIMETER_MID_ZN_2, Cooling, 11015.75053, 11015.75053, 0.81810, 0.81810, CHICAGO OHARE INTL AP ANN CLG .4% CONDNS DB=>MWB, 7/21 08:20:00, 26.19500, 1.49611E-002, 131.26219, 7.06447, 5.66790E-002, -168.78148
 Zone Sizing Information, TZ_PERIMETER_MID_ZN_2, Heating, 7116.54876, 7116.54876, 0.20388, 0.20388, CHICAGO OHARE INTL AP ANN HTG 99.6% CONDNS DB, 1/21 08:00:00, -20.00000, 6.49857E-004, 131.26219, 7.06447, 5.66790E-002, -307.14279
 Zone Sizing Information, TZ_PERIMETER_MID_ZN_3, Cooling, 8073.66925, 8073.66925, 0.59962, 0.59962, CHICAGO OHARE INTL AP ANN CLG .4% CONDNS DB=>MWB, 7/21 14:20:00, 33.30000, 1.49611E-002, 207.33814, 11.15885, 8.95286E-002, -266.57274
 Zone Sizing Information, TZ_PERIMETER_MID_ZN_3, Heating, 10865.20022, 10865.20022, 0.31125, 0.31125, CHICAGO OHARE INTL AP ANN HTG 99.6% CONDNS DB, 1/21 08:00:00, -20.00000, 6.49857E-004, 207.33814, 11.15885, 8.95286E-002, -485.15236
 Zone Sizing Information, TZ_PERIMETER_MID_ZN_4, Cooling, 10911.09530, 10911.09530, 0.81034, 0.81034, CHICAGO OHARE INTL AP ANN CLG .4% CONDNS DB=>MWB, 7/21 16:50:00, 31.97000, 1.49611E-002, 131.25358, 7.06401, 5.66753E-002, -168.75655
 Zone Sizing Information, TZ_PERIMETER_MID_ZN_4, Heating, 7211.15901, 7211.15901, 0.20659, 0.20659, CHICAGO OHARE INTL AP ANN HTG 99.6% CONDNS DB, 1/21 08:00:00, -20.00000, 6.49857E-004, 131.25358, 7.06401, 5.66753E-002, -307.12222
 Zone Sizing Information, TZ_PERIMETER_TOP_ZN_1, Cooling, 11996.37950, 11996.37950, 0.89096, 0.89096, CHICAGO OHARE INTL AP ANN CLG .4% CONDNS DB=>MWB, 7/21 13:00:00, 32.77500, 1.49611E-002, 207.33814, 11.15885, 8.95286E-002, -266.57099
 Zone Sizing Information, TZ_PERIMETER_TOP_ZN_1, Heating, 13296.31536, 13296.31536, 0.38103, 0.38103, CHICAGO OHARE INTL AP ANN HTG 99.6% CONDNS DB, 1/21 08:00:00, -20.00000, 6.49857E-004, 207.33814, 11.15885, 8.95286E-002, -485.14239
 Zone Sizing Information, TZ_PERIMETER_TOP_ZN_2, Cooling, 11026.20436, 11026.20436, 0.81888, 0.81888, CHICAGO OHARE INTL AP ANN CLG .4% CONDNS DB=>MWB, 7/21 08:20:00, 26.19500, 1.49611E-002, 131.26219, 7.06447, 5.66790E-002, -168.77965
 Zone Sizing Information, TZ_PERIMETER_TOP_ZN_2, Heating, 8583.89933, 8583.89933, 0.24599, 0.24599, CHICAGO OHARE INTL AP ANN HTG 99.6% CONDNS DB, 1/21 08:00:00, -20.00000, 6.49857E-004, 131.26219, 7.06447, 5.66790E-002, -307.13585
 Zone Sizing Information, TZ_PERIMETER_TOP_ZN_3, Cooling, 8412.65218, 8412.65218, 0.62480, 0.62480, CHICAGO OHARE INTL AP ANN CLG .4% CONDNS DB=>MWB, 7/21 14:50:00, 33.30000, 1.49611E-002, 207.33814, 11.15885, 8.95286E-002, -266.56981
 Zone Sizing Information, TZ_PERIMETER_TOP_ZN_3, Heating, 13201.70310, 13201.70310, 0.37831, 0.37831, CHICAGO OHARE INTL AP ANN HTG 99.6% CONDNS DB, 1/21 08:00:00, -20.00000, 6.49857E-004, 207.33814, 11.15885, 8.95286E-002, -485.14175
 Zone Sizing Information, TZ_PERIMETER_TOP_ZN_4, Cooling, 11198.91017, 11198.91017, 0.83172, 0.83172, CHICAGO OHARE INTL AP ANN CLG .4% CONDNS DB=>MWB, 7/21 16:50:00, 31.97000, 1.49611E-002, 131.25358, 7.06401, 5.66753E-002, -168.75502
 Zone Sizing Information, TZ_PERIMETER_TOP_ZN_4, Heating, 8681.99918, 8681.99918, 0.24881, 0.24881, CHICAGO OHARE INTL AP ANN HTG 99.6% CONDNS DB, 1/21 08:00:00, -20.00000, 6.49857E-004, 131.25358, 7.06401, 5.66753E-002, -307.11524
! <System Sizing Information>, System Name, Load Type, Peak Load Kind, User Design Capacity, Calc Des Air Flow Rate [m3/s], User Des Air Flow Rate [m3/s], Design Day Name, Date/Time of Peak
 System Sizing Information, 20 ZONE DOAS, Cooling, Sensible, 86232.13, 22.24831, 4.11279, CHICAGO OHARE INTL AP ANN CLG .4% CONDNS DB=>MWB, 7/21 00:00:00
 System Sizing Information, 20 ZONE DOAS, Heating, Sensible, 199786.39, 7.72054, 4.11279, CHICAGO OHARE INTL AP ANN HTG 99.6% CONDNS DB, 1/21 08:00:00
! <Component Sizing Information>, Component Type, Component Name, Input Field Description, Value
 Component Sizing Information, AirTerminal:SingleDuct:ConstantVolume:NoReheat, TZ_CORE_BOTTOM AIR TERMINAL, Design Size Maximum Air Flow Rate [m3/s], 0.42469
 Component Sizing Information, ZoneHVAC:WaterToAirHeatPump, TZ_CORE_BOTTOM WSHP, Design Size Cooling Supply Air Flow Rate [m3/s], 3.70415
 Component Sizing Information, ZoneHVAC:WaterToAirHeatPump, TZ_CORE_BOTTOM WSHP, Design Size Heating Supply Air Flow Rate [m3/s], 3.70415
 Component Sizing Information, ZoneHVAC:WaterToAirHeatPump, TZ_CORE_BOTTOM WSHP, Design Size No Load Supply Air Flow Rate [m3/s], 3.70415
 Component Sizing Information, ZoneHVAC:WaterToAirHeatPump, TZ_CORE_BOTTOM WSHP, Design Size Maximum Supply Air Temperature from Supplemental Heater [C], 50.00000
 Component Sizing Information, Fan:OnOff, TZ_CORE_BOTTOM WSHP FAN, Design Size Maximum Flow Rate [m3/s], 3.70415
 Component Sizing Information, COIL:COOLING:WATERTOAIRHEATPUMP:EQUATIONFIT, TZ_CORE_BOTTOM WATER-TO-AIR HP CLG COIL, Design Size Rated Air Flow Rate [m3/s], 3.70415
 Component Sizing Information, COIL:COOLING:WATERTOAIRHEATPUMP:EQUATIONFIT, TZ_CORE_BOTTOM WATER-TO-AIR HP CLG COIL, Design Size Rated Total Cooling Capacity [W], 65780.12902
 Component Sizing Information, COIL:COOLING:WATERTOAIRHEATPUMP:EQUATIONFIT, TZ_CORE_BOTTOM WATER-TO-AIR HP CLG COIL, Design Size Rated Sensible Cooling Capacity [W], 48515.93038
 Component Sizing Information, COIL:COOLING:WATERTOAIRHEATPUMP:EQUATIONFIT, TZ_CORE_BOTTOM WATER-TO-AIR HP CLG COIL, Design Size Rated Water Flow Rate [m3/s], 2.36851E-003
 Component Sizing Information, COIL:HEATING:WATERTOAIRHEATPUMP:EQUATIONFIT, TZ_CORE_BOTTOM WATER-TO-AIR HP HTG COIL, Design Size Rated Air Flow Rate [m3/s], 3.70415
 Component Sizing Information, COIL:HEATING:WATERTOAIRHEATPUMP:EQUATIONFIT, TZ_CORE_BOTTOM WATER-TO-AIR HP HTG COIL, Design Size Rated Heating Capacity [W], 65780.12902
 Component Sizing Information, COIL:HEATING:WATERTOAIRHEATPUMP:EQUATIONFIT, TZ_CORE_BOTTOM WATER-TO-AIR HP HTG COIL, Design Size Rated Water Flow Rate [m3/s], 2.36851E-003
 Component Sizing Information, Coil:Heating:Electric, TZ_CORE_BOTTOM SUPPLEMENTAL HTG COIL, Design Size Nominal Capacity [W], 15143.39131
 Component Sizing Information, AirTerminal:SingleDuct:ConstantVolume:NoReheat, TZ_CORE_GROUND AIR TERMINAL, Design Size Maximum Air Flow Rate [m3/s], 1.16166
 Component Sizing Information, ZoneHVAC:WaterToAirHeatPump, TZ_CORE_GROUND WSHP, Design Size Cooling Supply Air Flow Rate [m3/s], 3.59694
 Component Sizing Information, ZoneHVAC:WaterToAirHeatPump, TZ_CORE_GROUND WSHP, Design Size Heating Supply Air Flow Rate [m3/s], 3.59694
 Component Sizing Information, ZoneHVAC:WaterToAirHeatPump, TZ_CORE_GROUND WSHP, Design Size No Load Supply Air Flow Rate [m3/s], 3.59694
 Component Sizing Information, ZoneHVAC:WaterToAirHeatPump, TZ_CORE_GROUND WSHP, Design Size Maximum Supply Air Temperature from Supplemental Heater [C], 40.00000
 Component Sizing Information, Fan:OnOff, TZ_CORE_GROUND WSHP FAN, Design Size Maximum Flow Rate [m3/s], 3.59694
 Component Sizing Information, COIL:COOLING:WATERTOAIRHEATPUMP:EQUATIONFIT, TZ_CORE_GROUND WATER-TO-AIR HP CLG COIL, Design Size Rated Air Flow Rate [m3/s], 3.59694
 Component Sizing Information, COIL:COOLING:WATERTOAIRHEATPUMP:EQUATIONFIT, TZ_CORE_GROUND WATER-TO-AIR HP CLG COIL, Design Size Rated Total Cooling Capacity [W], 77720.44937
 Component Sizing Information, COIL:COOLING:WATERTOAIRHEATPUMP:EQUATIONFIT, TZ_CORE_GROUND WATER-TO-AIR HP CLG COIL, Design Size Rated Sensible Cooling Capacity [W], 49437.02859
 Component Sizing Information, COIL:COOLING:WATERTOAIRHEATPUMP:EQUATIONFIT, TZ_CORE_GROUND WATER-TO-AIR HP CLG COIL, Design Size Rated Water Flow Rate [m3/s], 2.79844E-003
 Component Sizing Information, COIL:HEATING:WATERTOAIRHEATPUMP:EQUATIONFIT, TZ_CORE_GROUND WATER-TO-AIR HP HTG COIL, Design Size Rated Air Flow Rate [m3/s], 3.59694
 Component Sizing Information, COIL:HEATING:WATERTOAIRHEATPUMP:EQUATIONFIT, TZ_CORE_GROUND WATER-TO-AIR HP HTG COIL, Design Size Rated Heating Capacity [W], 77720.44937
 Component Sizing Information, COIL:HEATING:WATERTOAIRHEATPUMP:EQUATIONFIT, TZ_CORE_GROUND WATER-TO-AIR HP HTG COIL, Design Size Rated Water Flow Rate [m3/s], 2.79844E-003
 Component Sizing Information, Coil:Heating:Electric, TZ_CORE_GROUND SUPPLEMENTAL HTG COIL, Design Size Nominal Capacity [W], 13930.78429
 Component Sizing Information, AirTerminal:SingleDuct:ConstantVolume:NoReheat, TZ_CORE_MID AIR TERMINAL, Design Size Maximum Air Flow Rate [m3/s], 0.42469
 Component Sizing Information, ZoneHVAC:WaterToAirHeatPump, TZ_CORE_MID WSHP, Design Size Cooling Supply Air Flow Rate [m3/s], 2.22718
 Component Sizing Information, ZoneHVAC:WaterToAirHeatPump, TZ_CORE_MID WSHP, Design Size Heating Supply Air Flow Rate [m3/s], 2.22718
 Component Sizing Information, ZoneHVAC:WaterToAirHeatPump, TZ_CORE_MID WSHP, Design Size No Load Supply Air Flow Rate [m3/s], 2.22718
 Component Sizing Information, ZoneHVAC:WaterToAirHeatPump, TZ_CORE_MID WSHP, Design Size Maximum Supply Air Temperature from Supplemental Heater [C], 50.00000
 Component Sizing Information, Fan:OnOff, TZ_CORE_MID WSHP FAN, Design Size Maximum Flow Rate [m3/s], 2.22718
 Component Sizing Information, COIL:COOLING:WATERTOAIRHEATPUMP:EQUATIONFIT, TZ_CORE_MID WATER-TO-AIR HP CLG COIL, Design Size Rated Air Flow Rate [m3/s], 2.22718
 Component Sizing Information, COIL:COOLING:WATERTOAIRHEATPUMP:EQUATIONFIT, TZ_CORE_MID WATER-TO-AIR HP CLG COIL, Design Size Rated Total Cooling Capacity [W], 42363.63784
 Component Sizing Information, COIL:COOLING:WATERTOAIRHEATPUMP:EQUATIONFIT, TZ_CORE_MID WATER-TO-AIR HP CLG COIL, Design Size Rated Sensible Cooling Capacity [W], 30189.61905
 Component Sizing Information, COIL:COOLING:WATERTOAIRHEATPUMP:EQUATIONFIT, TZ_CORE_MID WATER-TO-AIR HP CLG COIL, Design Size Rated Water Flow Rate [m3/s], 1.52536E-003
 Component Sizing Information, COIL:HEATING:WATERTOAIRHEATPUMP:EQUATIONFIT, TZ_CORE_MID WATER-TO-AIR HP HTG COIL, Design Size Rated Air Flow Rate [m3/s], 2.22718
 Component Sizing Information, COIL:HEATING:WATERTOAIRHEATPUMP:EQUATIONFIT, TZ_CORE_MID WATER-TO-AIR HP HTG COIL, Design Size Rated Heating Capacity [W], 42363.63784
 Component Sizing Information, COIL:HEATING:WATERTOAIRHEATPUMP:EQUATIONFIT, TZ_CORE_MID WATER-TO-AIR HP HTG COIL, Design Size Rated Water Flow Rate [m3/s], 1.52536E-003
 Component Sizing Information, Coil:Heating:Electric, TZ_CORE_MID SUPPLEMENTAL HTG COIL, Design Size Nominal Capacity [W], 17815.56237
 Component Sizing Information, AirTerminal:SingleDuct:ConstantVolume:NoReheat, TZ_CORE_TOP AIR TERMINAL, Design Size Maximum Air Flow Rate [m3/s], 0.42469
 Component Sizing Information, ZoneHVAC:WaterToAirHeatPump, TZ_CORE_TOP WSHP, Design Size Cooling Supply Air Flow Rate [m3/s], 2.24550
 Component Sizing Information, ZoneHVAC:WaterToAirHeatPump, TZ_CORE_TOP WSHP, Design Size Heating Supply Air Flow Rate [m3/s], 2.24550
 Component Sizing Information, ZoneHVAC:WaterToAirHeatPump, TZ_CORE_TOP WSHP, Design Size No Load Supply Air Flow Rate [m3/s], 2.24550
 Component Sizing Information, ZoneHVAC:WaterToAirHeatPump, TZ_CORE_TOP WSHP, Design Size Maximum Supply Air Temperature from Supplemental Heater [C], 50.00000
 Component Sizing Information, Fan:OnOff, TZ_CORE_TOP WSHP FAN, Design Size Maximum Flow Rate [m3/s], 2.24550
 Component Sizing Information, COIL:COOLING:WATERTOAIRHEATPUMP:EQUATIONFIT, TZ_CORE_TOP WATER-TO-AIR HP CLG COIL, Design Size Rated Air Flow Rate [m3/s], 2.24550
 Component Sizing Information, COIL:COOLING:WATERTOAIRHEATPUMP:EQUATIONFIT, TZ_CORE_TOP WATER-TO-AIR HP CLG COIL, Design Size Rated Total Cooling Capacity [W], 42647.54597
 Component Sizing Information, COIL:COOLING:WATERTOAIRHEATPUMP:EQUATIONFIT, TZ_CORE_TOP WATER-TO-AIR HP CLG COIL, Design Size Rated Sensible Cooling Capacity [W], 30413.73713
 Component Sizing Information, COIL:COOLING:WATERTOAIRHEATPUMP:EQUATIONFIT, TZ_CORE_TOP WATER-TO-AIR HP CLG COIL, Design Size Rated Water Flow Rate [m3/s], 1.53559E-003
 Component Sizing Information, COIL:HEATING:WATERTOAIRHEATPUMP:EQUATIONFIT, TZ_CORE_TOP WATER-TO-AIR HP HTG COIL, Design Size Rated Air Flow Rate [m3/s], 2.24550
 Component Sizing Information, COIL:HEATING:WATERTOAIRHEATPUMP:EQUATIONFIT, TZ_CORE_TOP WATER-TO-AIR HP HTG COIL, Design Size Rated Heating Capacity [W], 42647.54597
 Component Sizing Information, COIL:HEATING:WATERTOAIRHEATPUMP:EQUATIONFIT, TZ_CORE_TOP WATER-TO-AIR HP HTG COIL, Design Size Rated Water Flow Rate [m3/s], 1.53559E-003
 Component Sizing Information, Coil:Heating:Electric, TZ_CORE_TOP SUPPLEMENTAL HTG COIL, Design Size Nominal Capacity [W], 29032.15541
 Component Sizing Information, AirTerminal:SingleDuct:ConstantVolume:NoReheat, TZ_PERIMETER_BOT_ZN_1 AIR TERMINAL, Design Size Maximum Air Flow Rate [m3/s], 8.95286E-002
 Component Sizing Information, ZoneHVAC:WaterToAirHeatPump, TZ_PERIMETER_BOT_ZN_1 WSHP, Design Size Cooling Supply Air Flow Rate [m3/s], 0.89837
 Component Sizing Information, ZoneHVAC:WaterToAirHeatPump, TZ_PERIMETER_BOT_ZN_1 WSHP, Design Size Heating Supply Air Flow Rate [m3/s], 0.89837
 Component Sizing Information, ZoneHVAC:WaterToAirHeatPump, TZ_PERIMETER_BOT_ZN_1 WSHP, Design Size No Load Supply Air Flow Rate [m3/s], 0.89837
 Component Sizing Information, ZoneHVAC:WaterToAirHeatPump, TZ_PERIMETER_BOT_ZN_1 WSHP, Design Size Maximum Supply Air Temperature from Supplemental Heater [C], 50.00000
 Component Sizing Information, Fan:OnOff, TZ_PERIMETER_BOT_ZN_1 WSHP FAN, Design Size Maximum Flow Rate [m3/s], 0.89837
 Component Sizing Information, COIL:COOLING:WATERTOAIRHEATPUMP:EQUATIONFIT, TZ_PERIMETER_BOT_ZN_1 WATER-TO-AIR HP CLG COIL, Design Size Rated Air Flow Rate [m3/s], 0.89837
 Component Sizing Information, COIL:COOLING:WATERTOAIRHEATPUMP:EQUATIONFIT, TZ_PERIMETER_BOT_ZN_1 WATER-TO-AIR HP CLG COIL, Design Size Rated Total Cooling Capacity [W], 15773.54784
 Component Sizing Information, COIL:COOLING:WATERTOAIRHEATPUMP:EQUATIONFIT, TZ_PERIMETER_BOT_ZN_1 WATER-TO-AIR HP CLG COIL, Design Size Rated Sensible Cooling Capacity [W], 11698.03372
 Component Sizing Information, COIL:COOLING:WATERTOAIRHEATPUMP:EQUATIONFIT, TZ_PERIMETER_BOT_ZN_1 WATER-TO-AIR HP CLG COIL, Design Size Rated Water Flow Rate [m3/s], 5.67949E-004
 Component Sizing Information, COIL:HEATING:WATERTOAIRHEATPUMP:EQUATIONFIT, TZ_PERIMETER_BOT_ZN_1 WATER-TO-AIR HP HTG COIL, Design Size Rated Air Flow Rate [m3/s], 0.89837
 Component Sizing Information, COIL:HEATING:WATERTOAIRHEATPUMP:EQUATIONFIT, TZ_PERIMETER_BOT_ZN_1 WATER-TO-AIR HP HTG COIL, Design Size Rated Heating Capacity [W], 15773.54784
 Component Sizing Information, COIL:HEATING:WATERTOAIRHEATPUMP:EQUATIONFIT, TZ_PERIMETER_BOT_ZN_1 WATER-TO-AIR HP HTG COIL, Design Size Rated Water Flow Rate [m3/s], 5.67949E-004
 Component Sizing Information, Coil:Heating:Electric, TZ_PERIMETER_BOT_ZN_1 SUPPLEMENTAL HTG COIL, Design Size Nominal Capacity [W], 10303.21721
 Component Sizing Information, AirTerminal:SingleDuct:ConstantVolume:NoReheat, TZ_PERIMETER_BOT_ZN_2 AIR TERMINAL, Design Size Maximum Air Flow Rate [m3/s], 5.66790E-002
 Component Sizing Information, ZoneHVAC:WaterToAirHeatPump, TZ_PERIMETER_BOT_ZN_2 WSHP, Design Size Cooling Supply Air Flow Rate [m3/s], 0.82933
 Component Sizing Information, ZoneHVAC:WaterToAirHeatPump, TZ_PERIMETER_BOT_ZN_2 WSHP, Design Size Heating Supply Air Flow Rate [m3/s], 0.82933
 Component Sizing Information, ZoneHVAC:WaterToAirHeatPump, TZ_PERIMETER_BOT_ZN_2 WSHP, Design Size No Load Supply Air Flow Rate [m3/s], 0.82933
 Component Sizing Information, ZoneHVAC:WaterToAirHeatPump, TZ_PERIMETER_BOT_ZN_2 WSHP, Design Size Maximum Supply Air Temperature from Supplemental Heater [C], 50.00000
 Component Sizing Information, Fan:OnOff, TZ_PERIMETER_BOT_ZN_2 WSHP FAN, Design Size Maximum Flow Rate [m3/s], 0.82933
 Component Sizing Information, COIL:COOLING:WATERTOAIRHEATPUMP:EQUATIONFIT, TZ_PERIMETER_BOT_ZN_2 WATER-TO-AIR HP CLG COIL, Design Size Rated Air Flow Rate [m3/s], 0.82933
 Component Sizing Information, COIL:COOLING:WATERTOAIRHEATPUMP:EQUATIONFIT, TZ_PERIMETER_BOT_ZN_2 WATER-TO-AIR HP CLG COIL, Design Size Rated Total Cooling Capacity [W], 14142.12205
 Component Sizing Information, COIL:COOLING:WATERTOAIRHEATPUMP:EQUATIONFIT, TZ_PERIMETER_BOT_ZN_2 WATER-TO-AIR HP CLG COIL, Design Size Rated Sensible Cooling Capacity [W], 10662.11831
 Component Sizing Information, COIL:COOLING:WATERTOAIRHEATPUMP:EQUATIONFIT, TZ_PERIMETER_BOT_ZN_2 WATER-TO-AIR HP CLG COIL, Design Size Rated Water Flow Rate [m3/s], 5.09207E-004
 Component Sizing Information, COIL:HEATING:WATERTOAIRHEATPUMP:EQUATIONFIT, TZ_PERIMETER_BOT_ZN_2 WATER-TO-AIR HP HTG COIL, Design Size Rated Air Flow Rate [m3/s], 0.82933
 Component Sizing Information, COIL:HEATING:WATERTOAIRHEATPUMP:EQUATIONFIT, TZ_PERIMETER_BOT_ZN_2 WATER-TO-AIR HP HTG COIL, Design Size Rated Heating Capacity [W], 14142.12205
 Component Sizing Information, COIL:HEATING:WATERTOAIRHEATPUMP:EQUATIONFIT, TZ_PERIMETER_BOT_ZN_2 WATER-TO-AIR HP HTG COIL, Design Size Rated Water Flow Rate [m3/s], 5.09207E-004
 Component Sizing Information, Coil:Heating:Electric, TZ_PERIMETER_BOT_ZN_2 SUPPLEMENTAL HTG COIL, Design Size Nominal Capacity [W], 6690.27100
 Component Sizing Information, AirTerminal:SingleDuct:ConstantVolume:NoReheat, TZ_PERIMETER_BOT_ZN_3 AIR TERMINAL, Design Size Maximum Air Flow Rate [m3/s], 8.95286E-002
 Component Sizing Information, ZoneHVAC:WaterToAirHeatPump, TZ_PERIMETER_BOT_ZN_3 WSHP, Design Size Cooling Supply Air Flow Rate [m3/s], 0.61941
 Component Sizing Information, ZoneHVAC:WaterToAirHeatPump, TZ_PERIMETER_BOT_ZN_3 WSHP, Design Size Heating Supply Air Flow Rate [m3/s], 0.61941
 Component Sizing Information, ZoneHVAC:WaterToAirHeatPump, TZ_PERIMETER_BOT_ZN_3 WSHP, Design Size No Load Supply Air Flow Rate [m3/s], 0.61941
 Component Sizing Information, ZoneHVAC:WaterToAirHeatPump, TZ_PERIMETER_BOT_ZN_3 WSHP, Design Size Maximum Supply Air Temperature from Supplemental Heater [C], 50.00000
 Component Sizing Information, Fan:OnOff, TZ_PERIMETER_BOT_ZN_3 WSHP FAN, Design Size Maximum Flow Rate [m3/s], 0.61941
 Component Sizing Information, COIL:COOLING:WATERTOAIRHEATPUMP:EQUATIONFIT, TZ_PERIMETER_BOT_ZN_3 WATER-TO-AIR HP CLG COIL, Design Size Rated Air Flow Rate [m3/s], 0.61941
 Component Sizing Information, COIL:COOLING:WATERTOAIRHEATPUMP:EQUATIONFIT, TZ_PERIMETER_BOT_ZN_3 WATER-TO-AIR HP CLG COIL, Design Size Rated Total Cooling Capacity [W], 11355.44712
 Component Sizing Information, COIL:COOLING:WATERTOAIRHEATPUMP:EQUATIONFIT, TZ_PERIMETER_BOT_ZN_3 WATER-TO-AIR HP CLG COIL, Design Size Rated Sensible Cooling Capacity [W], 8235.76828
 Component Sizing Information, COIL:COOLING:WATERTOAIRHEATPUMP:EQUATIONFIT, TZ_PERIMETER_BOT_ZN_3 WATER-TO-AIR HP CLG COIL, Design Size Rated Water Flow Rate [m3/s], 4.08869E-004
 Component Sizing Information, COIL:HEATING:WATERTOAIRHEATPUMP:EQUATIONFIT, TZ_PERIMETER_BOT_ZN_3 WATER-TO-AIR HP HTG COIL, Design Size Rated Air Flow Rate [m3/s], 0.61941
 Component Sizing Information, COIL:HEATING:WATERTOAIRHEATPUMP:EQUATIONFIT, TZ_PERIMETER_BOT_ZN_3 WATER-TO-AIR HP HTG COIL, Design Size Rated Heating Capacity [W], 11355.44712
 Component Sizing Information, COIL:HEATING:WATERTOAIRHEATPUMP:EQUATIONFIT, TZ_PERIMETER_BOT_ZN_3 WATER-TO-AIR HP HTG COIL, Design Size Rated Water Flow Rate [m3/s], 4.08869E-004
 Component Sizing Information, Coil:Heating:Electric, TZ_PERIMETER_BOT_ZN_3 SUPPLEMENTAL HTG COIL, Design Size Nominal Capacity [W], 10186.23516
 Component Sizing Information, AirTerminal:SingleDuct:ConstantVolume:NoReheat, TZ_PERIMETER_BOT_ZN_4 AIR TERMINAL, Design Size Maximum Air Flow Rate [m3/s], 5.66753E-002
 Component Sizing Information, ZoneHVAC:WaterToAirHeatPump, TZ_PERIMETER_BOT_ZN_4 WSHP, Design Size Cooling Supply Air Flow Rate [m3/s], 0.82570
 Component Sizing Information, ZoneHVAC:WaterToAirHeatPump, TZ_PERIMETER_BOT_ZN_4 WSHP, Design Size Heating Supply Air Flow Rate [m3/s], 0.82570
 Component Sizing Information, ZoneHVAC:WaterToAirHeatPump, TZ_PERIMETER_BOT_ZN_4 WSHP, Design Size No Load Supply Air Flow Rate [m3/s], 0.82570
 Component Sizing Information, ZoneHVAC:WaterToAirHeatPump, TZ_PERIMETER_BOT_ZN_4 WSHP, Design Size Maximum Supply Air Temperature from Supplemental Heater [C], 50.00000
 Component Sizing Information, Fan:OnOff, TZ_PERIMETER_BOT_ZN_4 WSHP FAN, Design Size Maximum Flow Rate [m3/s], 0.82570
 Component Sizing Information, COIL:COOLING:WATERTOAIRHEATPUMP:EQUATIONFIT, TZ_PERIMETER_BOT_ZN_4 WATER-TO-AIR HP CLG COIL, Design Size Rated Air Flow Rate [m3/s], 0.82570
 Component Sizing Information, COIL:COOLING:WATERTOAIRHEATPUMP:EQUATIONFIT, TZ_PERIMETER_BOT_ZN_4 WATER-TO-AIR HP CLG COIL, Design Size Rated Total Cooling Capacity [W], 14023.49347
 Component Sizing Information, COIL:COOLING:WATERTOAIRHEATPUMP:EQUATIONFIT, TZ_PERIMETER_BOT_ZN_4 WATER-TO-AIR HP CLG COIL, Design Size Rated Sensible Cooling Capacity [W], 10590.09797
 Component Sizing Information, COIL:COOLING:WATERTOAIRHEATPUMP:EQUATIONFIT, TZ_PERIMETER_BOT_ZN_4 WATER-TO-AIR HP CLG COIL, Design Size Rated Water Flow Rate [m3/s], 5.04936E-004
 Component Sizing Information, COIL:HEATING:WATERTOAIRHEATPUMP:EQUATIONFIT, TZ_PERIMETER_BOT_ZN_4 WATER-TO-AIR HP HTG COIL, Design Size Rated Air Flow Rate [m3/s], 0.82570
 Component Sizing Information, COIL:HEATING:WATERTOAIRHEATPUMP:EQUATIONFIT, TZ_PERIMETER_BOT_ZN_4 WATER-TO-AIR HP HTG COIL, Design Size Rated Heating Capacity [W], 14023.49347
 Component Sizing Information, COIL:HEATING:WATERTOAIRHEATPUMP:EQUATIONFIT, TZ_PERIMETER_BOT_ZN_4 WATER-TO-AIR HP HTG COIL, Design Size Rated Water Flow Rate [m3/s], 5.04936E-004
 Component Sizing Information, Coil:Heating:Electric, TZ_PERIMETER_BOT_ZN_4 SUPPLEMENTAL HTG COIL, Design Size Nominal Capacity [W], 6779.67619
 Component Sizing Information, AirTerminal:SingleDuct:ConstantVolume:NoReheat, TZ_PERIMETER_GROUND_ZN_1 AIR TERMINAL, Design Size Maximum Air Flow Rate [m3/s], 0.24489
 Component Sizing Information, ZoneHVAC:WaterToAirHeatPump, TZ_PERIMETER_GROUND_ZN_1 WSHP, Design Size Cooling Supply Air Flow Rate [m3/s], 1.60109
 Component Sizing Information, ZoneHVAC:WaterToAirHeatPump, TZ_PERIMETER_GROUND_ZN_1 WSHP, Design Size Heating Supply Air Flow Rate [m3/s], 1.60109
 Component Sizing Information, ZoneHVAC:WaterToAirHeatPump, TZ_PERIMETER_GROUND_ZN_1 WSHP, Design Size No Load Supply Air Flow Rate [m3/s], 1.60109
 Component Sizing Information, ZoneHVAC:WaterToAirHeatPump, TZ_PERIMETER_GROUND_ZN_1 WSHP, Design Size Maximum Supply Air Temperature from Supplemental Heater [C], 40.00000
 Component Sizing Information, Fan:OnOff, TZ_PERIMETER_GROUND_ZN_1 WSHP FAN, Design Size Maximum Flow Rate [m3/s], 1.60109
 Component Sizing Information, COIL:COOLING:WATERTOAIRHEATPUMP:EQUATIONFIT, TZ_PERIMETER_GROUND_ZN_1 WATER-TO-AIR HP CLG COIL, Design Size Rated Air Flow Rate [m3/s], 1.60109
 Component Sizing Information, COIL:COOLING:WATERTOAIRHEATPUMP:EQUATIONFIT, TZ_PERIMETER_GROUND_ZN_1 WATER-TO-AIR HP CLG COIL, Design Size Rated Total Cooling Capacity [W], 27174.42006
 Component Sizing Information, COIL:COOLING:WATERTOAIRHEATPUMP:EQUATIONFIT, TZ_PERIMETER_GROUND_ZN_1 WATER-TO-AIR HP CLG COIL, Design Size Rated Sensible Cooling Capacity [W], 19204.60091
 Component Sizing Information, COIL:COOLING:WATERTOAIRHEATPUMP:EQUATIONFIT, TZ_PERIMETER_GROUND_ZN_1 WATER-TO-AIR HP CLG COIL, Design Size Rated Water Flow Rate [m3/s], 9.78454E-004
 Component Sizing Information, COIL:HEATING:WATERTOAIRHEATPUMP:EQUATIONFIT, TZ_PERIMETER_GROUND_ZN_1 WATER-TO-AIR HP HTG COIL, Design Size Rated Air Flow Rate [m3/s], 1.60109
 Component Sizing Information, COIL:HEATING:WATERTOAIRHEATPUMP:EQUATIONFIT, TZ_PERIMETER_GROUND_ZN_1 WATER-TO-AIR HP HTG COIL, Design Size Rated Heating Capacity [W], 27174.42006
 Component Sizing Information, COIL:HEATING:WATERTOAIRHEATPUMP:EQUATIONFIT, TZ_PERIMETER_GROUND_ZN_1 WATER-TO-AIR HP HTG COIL, Design Size Rated Water Flow Rate [m3/s], 9.78454E-004
 Component Sizing Information, Coil:Heating:Electric, TZ_PERIMETER_GROUND_ZN_1 SUPPLEMENTAL HTG COIL, Design Size Nominal Capacity [W], 10407.10667
 Component Sizing Information, AirTerminal:SingleDuct:ConstantVolume:NoReheat, TZ_PERIMETER_GROUND_ZN_2 AIR TERMINAL, Design Size Maximum Air Flow Rate [m3/s], 0.15503
 Component Sizing Information, ZoneHVAC:WaterToAirHeatPump, TZ_PERIMETER_GROUND_ZN_2 WSHP, Design Size Cooling Supply Air Flow Rate [m3/s], 1.59971
 Component Sizing Information, ZoneHVAC:WaterToAirHeatPump, TZ_PERIMETER_GROUND_ZN_2 WSHP, Design Size Heating Supply Air Flow Rate [m3/s], 1.59971
 Component Sizing Information, ZoneHVAC:WaterToAirHeatPump, TZ_PERIMETER_GROUND_ZN_2 WSHP, Design Size No Load Supply Air Flow Rate [m3/s], 1.59971
 Component Sizing Information, ZoneHVAC:WaterToAirHeatPump, TZ_PERIMETER_GROUND_ZN_2 WSHP, Design Size Maximum Supply Air Temperature from Supplemental Heater [C], 40.00000
 Component Sizing Information, Fan:OnOff, TZ_PERIMETER_GROUND_ZN_2 WSHP FAN, Design Size Maximum Flow Rate [m3/s], 1.59971
 Component Sizing Information, COIL:COOLING:WATERTOAIRHEATPUMP:EQUATIONFIT, TZ_PERIMETER_GROUND_ZN_2 WATER-TO-AIR HP CLG COIL, Design Size Rated Air Flow Rate [m3/s], 1.59971
 Component Sizing Information, COIL:COOLING:WATERTOAIRHEATPUMP:EQUATIONFIT, TZ_PERIMETER_GROUND_ZN_2 WATER-TO-AIR HP CLG COIL, Design Size Rated Total Cooling Capacity [W], 25564.18601
[...]
 Component Sizing Information, COIL:HEATING:WATERTOAIRHEATPUMP:EQUATIONFIT, TZ_PERIMETER_TOP_ZN_1 WATER-TO-AIR HP HTG COIL, Design Size Rated Water Flow Rate [m3/s], 5.65056E-004
 Component Sizing Information, Coil:Heating:Electric, TZ_PERIMETER_TOP_ZN_1 SUPPLEMENTAL HTG COIL, Design Size Nominal Capacity [W], 13253.65524
 Component Sizing Information, AirTerminal:SingleDuct:ConstantVolume:NoReheat, TZ_PERIMETER_TOP_ZN_2 AIR TERMINAL, Design Size Maximum Air Flow Rate [m3/s], 5.66790E-002
 Component Sizing Information, ZoneHVAC:WaterToAirHeatPump, TZ_PERIMETER_TOP_ZN_2 WSHP, Design Size Cooling Supply Air Flow Rate [m3/s], 0.81888
 Component Sizing Information, ZoneHVAC:WaterToAirHeatPump, TZ_PERIMETER_TOP_ZN_2 WSHP, Design Size Heating Supply Air Flow Rate [m3/s], 0.81888
 Component Sizing Information, ZoneHVAC:WaterToAirHeatPump, TZ_PERIMETER_TOP_ZN_2 WSHP, Design Size No Load Supply Air Flow Rate [m3/s], 0.81888
 Component Sizing Information, ZoneHVAC:WaterToAirHeatPump, TZ_PERIMETER_TOP_ZN_2 WSHP, Design Size Maximum Supply Air Temperature from Supplemental Heater [C], 50.00000
 Component Sizing Information, Fan:OnOff, TZ_PERIMETER_TOP_ZN_2 WSHP FAN, Design Size Maximum Flow Rate [m3/s], 0.81888
 Component Sizing Information, COIL:COOLING:WATERTOAIRHEATPUMP:EQUATIONFIT, TZ_PERIMETER_TOP_ZN_2 WATER-TO-AIR HP CLG COIL, Design Size Rated Air Flow Rate [m3/s], 0.81888
 Component Sizing Information, COIL:COOLING:WATERTOAIRHEATPUMP:EQUATIONFIT, TZ_PERIMETER_TOP_ZN_2 WATER-TO-AIR HP CLG COIL, Design Size Rated Total Cooling Capacity [W], 13952.66763
 Component Sizing Information, COIL:COOLING:WATERTOAIRHEATPUMP:EQUATIONFIT, TZ_PERIMETER_TOP_ZN_2 WATER-TO-AIR HP CLG COIL, Design Size Rated Sensible Cooling Capacity [W], 10517.73541
 Component Sizing Information, COIL:COOLING:WATERTOAIRHEATPUMP:EQUATIONFIT, TZ_PERIMETER_TOP_ZN_2 WATER-TO-AIR HP CLG COIL, Design Size Rated Water Flow Rate [m3/s], 5.02386E-004
 Component Sizing Information, COIL:HEATING:WATERTOAIRHEATPUMP:EQUATIONFIT, TZ_PERIMETER_TOP_ZN_2 WATER-TO-AIR HP HTG COIL, Design Size Rated Air Flow Rate [m3/s], 0.81888
 Component Sizing Information, COIL:HEATING:WATERTOAIRHEATPUMP:EQUATIONFIT, TZ_PERIMETER_TOP_ZN_2 WATER-TO-AIR HP HTG COIL, Design Size Rated Heating Capacity [W], 13952.66763
 Component Sizing Information, COIL:HEATING:WATERTOAIRHEATPUMP:EQUATIONFIT, TZ_PERIMETER_TOP_ZN_2 WATER-TO-AIR HP HTG COIL, Design Size Rated Water Flow Rate [m3/s], 5.02386E-004
 Component Sizing Information, Coil:Heating:Electric, TZ_PERIMETER_TOP_ZN_2 SUPPLEMENTAL HTG COIL, Design Size Nominal Capacity [W], 8556.59857
 Component Sizing Information, AirTerminal:SingleDuct:ConstantVolume:NoReheat, TZ_PERIMETER_TOP_ZN_3 AIR TERMINAL, Design Size Maximum Air Flow Rate [m3/s], 8.95286E-002
 Component Sizing Information, ZoneHVAC:WaterToAirHeatPump, TZ_PERIMETER_TOP_ZN_3 WSHP, Design Size Cooling Supply Air Flow Rate [m3/s], 0.62480
 Component Sizing Information, ZoneHVAC:WaterToAirHeatPump, TZ_PERIMETER_TOP_ZN_3 WSHP, Design Size Heating Supply Air Flow Rate [m3/s], 0.62480
 Component Sizing Information, ZoneHVAC:WaterToAirHeatPump, TZ_PERIMETER_TOP_ZN_3 WSHP, Design Size No Load Supply Air Flow Rate [m3/s], 0.62480
 Component Sizing Information, ZoneHVAC:WaterToAirHeatPump, TZ_PERIMETER_TOP_ZN_3 WSHP, Design Size Maximum Supply Air Temperature from Supplemental Heater [C], 50.00000
 Component Sizing Information, Fan:OnOff, TZ_PERIMETER_TOP_ZN_3 WSHP FAN, Design Size Maximum Flow Rate [m3/s], 0.62480
 Component Sizing Information, COIL:COOLING:WATERTOAIRHEATPUMP:EQUATIONFIT, TZ_PERIMETER_TOP_ZN_3 WATER-TO-AIR HP CLG COIL, Design Size Rated Air Flow Rate [m3/s], 0.62480
 Component Sizing Information, COIL:COOLING:WATERTOAIRHEATPUMP:EQUATIONFIT, TZ_PERIMETER_TOP_ZN_3 WATER-TO-AIR HP CLG COIL, Design Size Rated Total Cooling Capacity [W], 11475.44896
 Component Sizing Information, COIL:COOLING:WATERTOAIRHEATPUMP:EQUATIONFIT, TZ_PERIMETER_TOP_ZN_3 WATER-TO-AIR HP CLG COIL, Design Size Rated Sensible Cooling Capacity [W], 8315.07681
 Component Sizing Information, COIL:COOLING:WATERTOAIRHEATPUMP:EQUATIONFIT, TZ_PERIMETER_TOP_ZN_3 WATER-TO-AIR HP CLG COIL, Design Size Rated Water Flow Rate [m3/s], 4.13190E-004
 Component Sizing Information, COIL:HEATING:WATERTOAIRHEATPUMP:EQUATIONFIT, TZ_PERIMETER_TOP_ZN_3 WATER-TO-AIR HP HTG COIL, Design Size Rated Air Flow Rate [m3/s], 0.62480
 Component Sizing Information, COIL:HEATING:WATERTOAIRHEATPUMP:EQUATIONFIT, TZ_PERIMETER_TOP_ZN_3 WATER-TO-AIR HP HTG COIL, Design Size Rated Heating Capacity [W], 11475.44896
 Component Sizing Information, COIL:HEATING:WATERTOAIRHEATPUMP:EQUATIONFIT, TZ_PERIMETER_TOP_ZN_3 WATER-TO-AIR HP HTG COIL, Design Size Rated Water Flow Rate [m3/s], 4.13190E-004
 Component Sizing Information, Coil:Heating:Electric, TZ_PERIMETER_TOP_ZN_3 SUPPLEMENTAL HTG COIL, Design Size Nominal Capacity [W], 13159.21521
 Component Sizing Information, AirTerminal:SingleDuct:ConstantVolume:NoReheat, TZ_PERIMETER_TOP_ZN_4 AIR TERMINAL, Design Size Maximum Air Flow Rate [m3/s], 5.66753E-002
 Component Sizing Information, ZoneHVAC:WaterToAirHeatPump, TZ_PERIMETER_TOP_ZN_4 WSHP, Design Size Cooling Supply Air Flow Rate [m3/s], 0.83172
 Component Sizing Information, ZoneHVAC:WaterToAirHeatPump, TZ_PERIMETER_TOP_ZN_4 WSHP, Design Size Heating Supply Air Flow Rate [m3/s], 0.83172
 Component Sizing Information, ZoneHVAC:WaterToAirHeatPump, TZ_PERIMETER_TOP_ZN_4 WSHP, Design Size No Load Supply Air Flow Rate [m3/s], 0.83172
 Component Sizing Information, ZoneHVAC:WaterToAirHeatPump, TZ_PERIMETER_TOP_ZN_4 WSHP, Design Size Maximum Supply Air Temperature from Supplemental Heater [C], 50.00000
 Component Sizing Information, Fan:OnOff, TZ_PERIMETER_TOP_ZN_4 WSHP FAN, Design Size Maximum Flow Rate [m3/s], 0.83172
 Component Sizing Information, COIL:COOLING:WATERTOAIRHEATPUMP:EQUATIONFIT, TZ_PERIMETER_TOP_ZN_4 WATER-TO-AIR HP CLG COIL, Design Size Rated Air Flow Rate [m3/s], 0.83172
 Component Sizing Information, COIL:COOLING:WATERTOAIRHEATPUMP:EQUATIONFIT, TZ_PERIMETER_TOP_ZN_4 WATER-TO-AIR HP CLG COIL, Design Size Rated Total Cooling Capacity [W], 14144.25909
 Component Sizing Information, COIL:COOLING:WATERTOAIRHEATPUMP:EQUATIONFIT, TZ_PERIMETER_TOP_ZN_4 WATER-TO-AIR HP CLG COIL, Design Size Rated Sensible Cooling Capacity [W], 10673.51666
 Component Sizing Information, COIL:COOLING:WATERTOAIRHEATPUMP:EQUATIONFIT, TZ_PERIMETER_TOP_ZN_4 WATER-TO-AIR HP CLG COIL, Design Size Rated Water Flow Rate [m3/s], 5.09284E-004
 Component Sizing Information, COIL:HEATING:WATERTOAIRHEATPUMP:EQUATIONFIT, TZ_PERIMETER_TOP_ZN_4 WATER-TO-AIR HP HTG COIL, Design Size Rated Air Flow Rate [m3/s], 0.83172
 Component Sizing Information, COIL:HEATING:WATERTOAIRHEATPUMP:EQUATIONFIT, TZ_PERIMETER_TOP_ZN_4 WATER-TO-AIR HP HTG COIL, Design Size Rated Heating Capacity [W], 14144.25909
 Component Sizing Information, COIL:HEATING:WATERTOAIRHEATPUMP:EQUATIONFIT, TZ_PERIMETER_TOP_ZN_4 WATER-TO-AIR HP HTG COIL, Design Size Rated Water Flow Rate [m3/s], 5.09284E-004
 Component Sizing Information, Coil:Heating:Electric, TZ_PERIMETER_TOP_ZN_4 SUPPLEMENTAL HTG COIL, Design Size Nominal Capacity [W], 8654.53750
 Component Sizing Information, AirLoopHVAC, 20 ZONE DOAS, Sum of Air Terminal Maximum Heating Flow Rates [m3/s], 0.00000
 Component Sizing Information, AirLoopHVAC, 20 ZONE DOAS, Sum of Air Terminal Minimum Heating Flow Rates [m3/s], 0.00000
 Component Sizing Information, AirLoopHVAC, 20 ZONE DOAS, Sum of Air Terminal Maximum Flow Rates [m3/s], 4.11279
 Component Sizing Information, AirLoopHVAC, 20 ZONE DOAS, Adjusted Heating Design Air Flow Rate [m3/s], 4.11279
 Component Sizing Information, AirLoopHVAC, 20 ZONE DOAS, Adjusted Cooling Design Air Flow Rate [m3/s], 4.11279
 Component Sizing Information, AirLoopHVAC, 20 ZONE DOAS, Adjusted Main Design Air Flow Rate [m3/s], 4.11279
 Component Sizing Information, AirLoopHVAC, 20 ZONE DOAS, User Heating Air Flow Ratio [], 1.00000
 Component Sizing Information, AirLoopHVAC, 20 ZONE DOAS, Calculated Heating Air Flow Ratio [], 1.00000
 Component Sizing Information, AirLoopHVAC, 20 ZONE DOAS, Design Supply Air Flow Rate [m3/s], 4.11279
 Component Sizing Information, Fan:ConstantVolume, DOAS EXHAUST FAN, Design Size Maximum Flow Rate [m3/s], 4.11279
!<Controller:MechanicalVentilation>,Name,Availability Schedule Name,Demand Controlled Ventilation {Yes/No},System Outdoor Air Method,Zone Maximum Outdoor Air Fraction,Number of Zones,Zone Name,DSOA Name,DSZAD Name
 Controller:MechanicalVentilation,20 ZONE DOAS MECHANICAL VENTILATION CONTROLLER,20 ZONE DOAS OCC SCH,No,ZoneSum,1.00,20,TZ_CORE_BOTTOM,OFFICE WHOLEBUILDING - MD OFFICE VENTILATION,TZ_CORE_BOTTOM DESIGN SPEC ZONE AIR DIST,TZ_CORE_GROUND,90.1-2010 - RETAIL - RETAIL VENTILATION,TZ_CORE_GROUND DESIGN SPEC ZONE AIR DIST,TZ_CORE_MID,OFFICE WHOLEBUILDING - MD OFFICE VENTILATION,TZ_CORE_MID DESIGN SPEC ZONE AIR DIST,TZ_CORE_TOP,OFFICE WHOLEBUILDING - MD OFFICE VENTILATION,TZ_CORE_TOP DESIGN SPEC ZONE AIR DIST,TZ_PERIMETER_BOT_ZN_1,OFFICE WHOLEBUILDING - MD OFFICE VENTILATION,TZ_PERIMETER_BOT_ZN_1 DESIGN SPEC ZONE AIR DIST,TZ_PERIMETER_BOT_ZN_2,OFFICE WHOLEBUILDING - MD OFFICE VENTILATION,TZ_PERIMETER_BOT_ZN_2 DESIGN SPEC ZONE AIR DIST,TZ_PERIMETER_BOT_ZN_3,OFFICE WHOLEBUILDING - MD OFFICE VENTILATION,TZ_PERIMETER_BOT_ZN_3 DESIGN SPEC ZONE AIR DIST,TZ_PERIMETER_BOT_ZN_4,OFFICE WHOLEBUILDING - MD OFFICE VENTILATION,TZ_PERIMETER_BOT_ZN_4 DESIGN SPEC ZONE AIR DIST,TZ_PERIMETER_GROUND_ZN_1,90.1-2010 - RETAIL - RETAIL VENTILATION,TZ_PERIMETER_GROUND_ZN_1 DESIGN SPEC ZONE AIR DIST,TZ_PERIMETER_GROUND_ZN_2,90.1-2010 - RETAIL - RETAIL VENTILATION,TZ_PERIMETER_GROUND_ZN_2 DESIGN SPEC ZONE AIR DIST,TZ_PERIMETER_GROUND_ZN_3,90.1-2010 - RETAIL - RETAIL VENTILATION,TZ_PERIMETER_GROUND_ZN_3 DESIGN SPEC ZONE AIR DIST,TZ_PERIMETER_GROUND_ZN_4,90.1-2010 - RETAIL - RETAIL VENTILATION,TZ_PERIMETER_GROUND_ZN_4 DESIGN SPEC ZONE AIR DIST,TZ_PERIMETER_MID_ZN_1,OFFICE WHOLEBUILDING - MD OFFICE VENTILATION,TZ_PERIMETER_MID_ZN_1 DESIGN SPEC ZONE AIR DIST,TZ_PERIMETER_MID_ZN_2,OFFICE WHOLEBUILDING - MD OFFICE VENTILATION,TZ_PERIMETER_MID_ZN_2 DESIGN SPEC ZONE AIR DIST,TZ_PERIMETER_MID_ZN_3,OFFICE WHOLEBUILDING - MD OFFICE VENTILATION,TZ_PERIMETER_MID_ZN_3 DESIGN SPEC ZONE AIR DIST,TZ_PERIMETER_MID_ZN_4,OFFICE WHOLEBUILDING - MD OFFICE VENTILATION,TZ_PERIMETER_MID_ZN_4 DESIGN SPEC ZONE AIR DIST,TZ_PERIMETER_TOP_ZN_1,OFFICE WHOLEBUILDING - MD OFFICE VENTILATION,TZ_PERIMETER_TOP_ZN_1 DESIGN SPEC ZONE AIR DIST,TZ_PERIMETER_TOP_ZN_2,OFFICE WHOLEBUILDING - MD OFFICE VENTILATION,TZ_PERIMETER_TOP_ZN_2 DESIGN SPEC ZONE AIR DIST,TZ_PERIMETER_TOP_ZN_3,OFFICE WHOLEBUILDING - MD OFFICE VENTILATION,TZ_PERIMETER_TOP_ZN_3 DESIGN SPEC ZONE AIR DIST,TZ_PERIMETER_TOP_ZN_4,OFFICE WHOLEBUILDING - MD OFFICE VENTILATION,TZ_PERIMETER_TOP_ZN_4 DESIGN SPEC ZONE AIR DIST
 Component Sizing Information, Controller:OutdoorAir, 20 ZONE DOAS OUTDOOR AIR CONTROLLER, Maximum Outdoor Air Flow Rate [m3/s], 4.11279
 Component Sizing Information, Controller:OutdoorAir, 20 ZONE DOAS OUTDOOR AIR CONTROLLER, Minimum Outdoor Air Flow Rate [m3/s], 4.11279
 Component Sizing Information, HeatExchanger:AirToAir:SensibleAndLatent, 20 ZONE DOAS HEAT EXCHANGER, Design Size Nominal Supply Air Flow Rate [m3/s], 4.11279
 Component Sizing Information, Coil:Cooling:DX:TwoSpeed, 20 ZONE DOAS 2SPD DX CLG COIL, Design Size High Speed Rated Air Flow Rate [m3/s], 4.11279
 Component Sizing Information, Coil:Cooling:DX:TwoSpeed, 20 ZONE DOAS 2SPD DX CLG COIL, Design Size High Speed Gross Rated Total Cooling Capacity [W], 102130.48067
 Component Sizing Information, Coil:Cooling:DX:TwoSpeed, 20 ZONE DOAS 2SPD DX CLG COIL, Design Size High Speed Rated Sensible Heat Ratio, 0.69808
 Component Sizing Information, Coil:Cooling:DX:TwoSpeed, 20 ZONE DOAS 2SPD DX CLG COIL, Design Size Low Speed Rated Air Flow Rate [m3/s], 1.37079
 Component Sizing Information, Coil:Cooling:DX:TwoSpeed, 20 ZONE DOAS 2SPD DX CLG COIL, Design Size Low Speed Gross Rated Total Cooling Capacity [W], 34040.08921
 Component Sizing Information, Coil:Cooling:DX:TwoSpeed, 20 ZONE DOAS 2SPD DX CLG COIL, User-Specified Low Speed Gross Rated Sensible Heat Ratio, 0.69000
 Component Sizing Information, Coil:Heating:DX:SingleSpeed, 20 ZONE DOAS HTG COIL 348 CLG KBTU/HR 3.3COPH, Design Size Rated Air Flow Rate [m3/s], 4.11279
 Component Sizing Information, Coil:Heating:DX:SingleSpeed, 20 ZONE DOAS HTG COIL 348 CLG KBTU/HR 3.3COPH, Design Size Gross Rated Heating Capacity [W], 102130.48067
! <DX Heating Coil Standard Rating Information>, Component Type, Component Name, High Temperature Heating (net) Rating Capacity {W}, Low Temperature Heating (net) Rating Capacity {W}, HSPF {Btu/W-h}, Region Number
 DX Heating Coil Standard Rating Information, Coil:Heating:DX:SingleSpeed, 20 ZONE DOAS HTG COIL 348 CLG KBTU/HR 3.3COPH, 105219.6, 51975.0, 7.44, 4
 Component Sizing Information, Coil:Heating:Electric, 20 ZONE DOAS BACKUP HTG COIL, Design Size Nominal Capacity [W], 199786.39048
 Component Sizing Information, Fan:ConstantVolume, DOAS SUPPLY FAN, Design Size Maximum Flow Rate [m3/s], 4.11279
Water Heater Information,WaterHeater:Mixed,100GAL NATURAL GAS WATER HEATER - 100KBTU/HR 0.802 THERM EFF 0.808 THERM EFF,0.3785,29307.1,1.016,0.2254
 Component Sizing Information, PlantLoop, GROUND HX LOOP, Maximum Loop Flow Rate [m3/s], 1.77190E-002
 Component Sizing Information, PlantLoop, GROUND HX LOOP, Plant Loop Volume [m3], 2.12628
 Component Sizing Information, Pump:ConstantSpeed, GROUND HX LOOP PUMP, Design Flow Rate [m3/s], 1.77190E-002
 Component Sizing Information, Pump:ConstantSpeed, GROUND HX LOOP PUMP, Design Power Consumption [W], 5336.18835
 Component Sizing Information, PlantComponent:TemperatureSource, GROUND HX, Design Size Design Fluid Flow Rate [m3/s], 1.77190E-002
 Component Sizing Information, PlantLoop, MAIN SERVICE WATER LOOP, Maximum Loop Flow Rate [m3/s], 5.36265E-005
 Component Sizing Information, PlantLoop, MAIN SERVICE WATER LOOP, Plant Loop Volume [m3], 6.43518E-003
 Component Sizing Information, Pump:ConstantSpeed, SERVICE WATER LOOP PUMP, Design Flow Rate [m3/s], 5.36265E-005
 Component Sizing Information, Pump:ConstantSpeed, SERVICE WATER LOOP PUMP, Design Power Consumption [W], 16.14994
 Component Sizing Information, WaterHeater:Mixed, 100GAL NATURAL GAS WATER HEATER - 100KBTU/HR 0.802 THERM EFF 0.808 THERM EFF, Use Side Design Flow Rate [m3/s], 5.36265E-005
 Component Sizing Information, PlantEquipmentOperation:ComponentSetPoint, GROUND HX LOOP SETPOINT OPERATION SCHEME, Design Water Flow Rate [m3/s] Equipment # 58, 5.36265E-005
! <Environment>,Environment Name,Environment Type, Start Date, End Date, Start DayOfWeek, Duration {#days}, Source:Start DayOfWeek,  Use Daylight Saving, Use Holidays, Apply Weekend Holiday Rule,  Use Rain Values, Use Snow Values
! <Environment:Special Days>, Special Day Name, Special Day Type, Source, Start Date, Duration {#days}
! <Environment:Daylight Saving>, Daylight Saving Indicator, Source, Start Date, End Date
! <Environment:WarmupDays>, NumberofWarmupDays
Environment,RUN PERIOD 1,WeatherFileRunPeriod,01/01/2006,12/31/2006,Sunday,365,Use RunPeriod Specified Day,No,No,No,Yes,Yes
Environment:Daylight Saving,No,RunPeriod Object
Environment:WarmupDays, 15
! <Tabular Report>,Style,Unit Conversion
Tabular Report,HTML,None
! <Warmup Convergence Information>,Zone Name,Environment Type/Name,Average Warmup Temperature Difference {deltaC},Std Dev Warmup Temperature Difference {deltaC},Max Temperature Pass/Fail Convergence,Min Temperature Pass/Fail Convergence,Average Warmup Load Difference {W},Std Dev Warmup Load Difference {W},Heating Load Pass/Fail Convergence,Cooling Load Pass/Fail Convergence
 Warmup Convergence Information,TZ_CORE_BOTTOM,RunPeriod: RUN PERIOD 1,1.1170307739E-002,2.6170815549E-002,Pass,Pass,2.0762643586E-002,0.1501080130,Pass,Pass
 Warmup Convergence Information,TZ_CORE_GROUND,RunPeriod: RUN PERIOD 1,6.1983115184E-002,0.1674043109,Pass,Pass,5.8919900508E-002,0.2852823057,Pass,Pass
 Warmup Convergence Information,TZ_CORE_MID,RunPeriod: RUN PERIOD 1,1.4138297360E-002,3.5820128276E-002,Pass,Pass,1.8931470413E-002,0.1398732602,Pass,Pass
 Warmup Convergence Information,TZ_CORE_TOP,RunPeriod: RUN PERIOD 1,7.7791168725E-003,2.8866831882E-002,Pass,Pass,0.3432627336,3.2736093865,Pass,Pass
 Warmup Convergence Information,TZ_FIRSTFLOOR_PLENUM,RunPeriod: RUN PERIOD 1,1.3446865007E-002,8.8217009567E-003,Pass,Pass,0.0000000000,0.0000000000,Pass,Pass
 Warmup Convergence Information,TZ_GROUNDFLOOR_PLENUM,RunPeriod: RUN PERIOD 1,1.0952645819E-002,6.2090066151E-003,Pass,Pass,0.0000000000,0.0000000000,Pass,Pass
 Warmup Convergence Information,TZ_MIDFLOOR_PLENUM,RunPeriod: RUN PERIOD 1,1.4218851626E-002,9.6555281740E-003,Pass,Pass,0.0000000000,0.0000000000,Pass,Pass
 Warmup Convergence Information,TZ_PERIMETER_BOT_ZN_1,RunPeriod: RUN PERIOD 1,6.3743014770E-002,8.6573457115E-002,Pass,Pass,7.3251937850E-002,0.3355773250,Pass,Pass
 Warmup Convergence Information,TZ_PERIMETER_BOT_ZN_2,RunPeriod: RUN PERIOD 1,3.5724442591E-002,6.7439863751E-002,Pass,Pass,6.3253744985E-002,0.2338698693,Pass,Pass
 Warmup Convergence Information,TZ_PERIMETER_BOT_ZN_3,RunPeriod: RUN PERIOD 1,9.3170891475E-003,2.4866012147E-002,Pass,Pass,6.8107723832E-002,0.1677046354,Pass,Pass
 Warmup Convergence Information,TZ_PERIMETER_BOT_ZN_4,RunPeriod: RUN PERIOD 1,1.3754367918E-002,2.9431613333E-002,Pass,Pass,9.5142666058E-002,0.3699837909,Pass,Pass
 Warmup Convergence Information,TZ_PERIMETER_GROUND_ZN_1,RunPeriod: RUN PERIOD 1,0.1167016508,0.4426588838,Pass,Pass,0.5853928387,5.7614177726,Pass,Pass
 Warmup Convergence Information,TZ_PERIMETER_GROUND_ZN_2,RunPeriod: RUN PERIOD 1,9.9929835504E-002,0.4439764893,Pass,Pass,0.2288936735,0.7907135238,Pass,Pass
 Warmup Convergence Information,TZ_PERIMETER_GROUND_ZN_3,RunPeriod: RUN PERIOD 1,7.5001774421E-002,0.4137067266,Pass,Pass,6.6437472251E-002,0.1429532416,Pass,Pass
 Warmup Convergence Information,TZ_PERIMETER_GROUND_ZN_4,RunPeriod: RUN PERIOD 1,7.9911875694E-002,0.4456065775,Pass,Pass,0.1786637901,0.4173425022,Pass,Pass
 Warmup Convergence Information,TZ_PERIMETER_MID_ZN_1,RunPeriod: RUN PERIOD 1,4.6913201360E-002,7.3016886795E-002,Pass,Pass,7.9280900994E-002,0.2184299413,Pass,Pass
 Warmup Convergence Information,TZ_PERIMETER_MID_ZN_2,RunPeriod: RUN PERIOD 1,1.6104489838E-002,4.0839627066E-002,Pass,Pass,5.6039377904E-002,0.1255267349,Pass,Pass
 Warmup Convergence Information,TZ_PERIMETER_MID_ZN_3,RunPeriod: RUN PERIOD 1,7.1192025615E-006,3.1465010226E-005,Pass,Pass,2.6586266832E-002,2.7394346488E-002,Pass,Pass
 Warmup Convergence Information,TZ_PERIMETER_MID_ZN_4,RunPeriod: RUN PERIOD 1,1.8752807791E-003,7.2519716508E-003,Pass,Pass,3.1664983582E-002,3.3838492422E-002,Pass,Pass
 Warmup Convergence Information,TZ_PERIMETER_TOP_ZN_1,RunPeriod: RUN PERIOD 1,3.0317883208E-002,5.7777278914E-002,Pass,Pass,5.5904479489E-002,0.1370837210,Pass,Pass
 Warmup Convergence Information,TZ_PERIMETER_TOP_ZN_2,RunPeriod: RUN PERIOD 1,6.9563777482E-004,5.8089748760E-003,Pass,Pass,6.9801453417E-002,0.2213818730,Pass,Pass
 Warmup Convergence Information,TZ_PERIMETER_TOP_ZN_3,RunPeriod: RUN PERIOD 1,6.8636229219E-006,2.8877565348E-005,Pass,Pass,1.6033901135E-002,1.5293434390E-002,Pass,Pass
 Warmup Convergence Information,TZ_PERIMETER_TOP_ZN_4,RunPeriod: RUN PERIOD 1,6.9320518873E-006,2.8951934044E-005,Pass,Pass,1.9997388345E-002,1.8173343401E-002,Pass,Pass
 Warmup Convergence Information,TZ_TOPFLOOR_PLENUM,RunPeriod: RUN PERIOD 1,2.5692906730E-002,2.0477375092E-002,Pass,Pass,0.0000000000,0.0000000000,Pass,Pass
! <Program Control Information:Threads/Parallel Sims>, Threading Supported,Maximum Number of Threads, Env Set Threads (OMP_NUM_THREADS), EP Env Set Threads (EP_OMP_NUM_THREADS), IDF Set Threads, Number of Threads Used (Interior Radiant Exchange), Number Nominal Surfaces, Number Parallel Sims
Program Control:Threads/Parallel Sims, No,1, N/A, N/A, N/A, N/A, N/A, N/A
End of Data
