{
   "completed_at" : "20190410T050943Z",
   "completed_status" : "Success",
   "created_at" : "20190410T050826Z",
   "current_step" : 0,
   "eplusout_err" : "Program Version,EnergyPlus, Version 9.1.0-08d2e308bb, YMD=2019.04.09 23:08,\n   ************* Beginning Zone Sizing Calculations\n   ** Warning ** ProcessScheduleInput: Schedule:Day:Interval=\"ECONOMIZER MAX OA FRACTION 70 PCT DEFAULT\", Blank Schedule Type Limits Name input -- will not be validated.\n   ** Warning ** ProcessScheduleInput: Schedule:Day:Interval=\"ECONOMIZER MAX OA FRACTION 70 PCT DEFAULT 1\", Blank Schedule Type Limits Name input -- will not be validated.\n   ** Warning ** ProcessScheduleInput: Schedule:Day:Interval=\"OFFICEMEDIUM HVACOPERATIONSCHD DEFAULT\", Blank Schedule Type Limits Name input -- will not be validated.\n   ** Warning ** ProcessScheduleInput: Schedule:Day:Interval=\"OFFICEMEDIUM HVACOPERATIONSCHD SMRDSN|WKDY DAY\", Blank Schedule Type Limits Name input -- will not be validated.\n   ** Warning ** ProcessScheduleInput: Schedule:Day:Interval=\"OFFICEMEDIUM HVACOPERATIONSCHD SUMMER DESIGN DAY\", Blank Schedule Type Limits Name input -- will not be validated.\n   ** Warning ** ProcessScheduleInput: Schedule:Day:Interval=\"OFFICEMEDIUM HVACOPERATIONSCHD WINTER DESIGN DAY\", Blank Schedule Type Limits Name input -- will not be validated.\n   ** Warning ** ProcessScheduleInput: Schedule:Day:Interval=\"OFFICEMEDIUM HVACOPERATIONSCHD WNTRDSN|SAT DAY\", Blank Schedule Type Limits Name input -- will not be validated.\n   ** Warning ** ProcessScheduleInput: Schedule:Day:Interval=\"SCHEDULE DAY 1\", Blank Schedule Type Limits Name input -- will not be validated.\n   ** Warning ** ProcessScheduleInput: Schedule:Day:Interval=\"SCHEDULE DAY 2\", Blank Schedule Type Limits Name input -- will not be validated.\n   ** Warning ** ProcessScheduleInput: Schedule:Year=\"ECONOMIZER MAX OA FRACTION 70 PCT\", Blank Schedule Type Limits Name input -- will not be validated.\n   ** Warning ** ProcessScheduleInput: Schedule:Year=\"OFFICEMEDIUM HVACOPERATIONSCHD\", Blank Schedule Type Limits Name input -- will not be validated.\n   ** Warning ** ProcessScheduleInput: Schedule:Constant=\"ALWAYS OFF DISCRETE\", Blank Schedule Type Limits Name input -- will not be validated.\n   ** Warning ** ProcessScheduleInput: Schedule:Constant=\"ALWAYS ON CONTINUOUS\", Blank Schedule Type Limits Name input -- will not be validated.\n   ** Warning ** CheckUsedConstructions: There are 9 nominally unused constructions in input.\n   **   ~~~   ** For explicit details on each unused construction, use Output:Diagnostics,DisplayExtraWarnings;\n   ** Warning ** GetDaylightingControls: Fraction of Zone controlled by the Daylighting reference points is < 1.0.\n   **   ~~~   ** ..discovered in \"Daylighting:Controls\" for Zone=\"PERIMETER_BOT_ZN_1 ZN\", only 0.52 of the zone is controlled.\n   ** Warning ** GetDaylightingControls: Fraction of Zone controlled by the Daylighting reference points is < 1.0.\n   **   ~~~   ** ..discovered in \"Daylighting:Controls\" for Zone=\"PERIMETER_BOT_ZN_2 ZN\", only 0.52 of the zone is controlled.\n   ** Warning ** GetDaylightingControls: Fraction of Zone controlled by the Daylighting reference points is < 1.0.\n   **   ~~~   ** ..discovered in \"Daylighting:Controls\" for Zone=\"PERIMETER_BOT_ZN_3 ZN\", only 0.52 of the zone is controlled.\n   ** Warning ** GetDaylightingControls: Fraction of Zone controlled by the Daylighting reference points is < 1.0.\n   **   ~~~   ** ..discovered in \"Daylighting:Controls\" for Zone=\"PERIMETER_BOT_ZN_4 ZN\", only 0.52 of the zone is controlled.\n   ** Warning ** GetDaylightingControls: Fraction of Zone controlled by the Daylighting reference points is < 1.0.\n   **   ~~~   ** ..discovered in \"Daylighting:Controls\" for Zone=\"PERIMETER_MID_ZN_1 ZN\", only 0.52 of the zone is controlled.\n   ** Warning ** GetDaylightingControls: Fraction of Zone controlled by the Daylighting reference points is < 1.0.\n   **   ~~~   ** ..discovered in \"Daylighting:Controls\" for Zone=\"PERIMETER_MID_ZN_2 ZN\", only 0.52 of the zone is controlled.\n   ** Warning ** GetDaylightingControls: Fraction of Zone controlled by the Daylighting reference points is < 1.0.\n   **   ~~~   ** ..discovered in \"Daylighting:Controls\" for Zone=\"PERIMETER_MID_ZN_3 ZN\", only 0.52 of the zone is controlled.\n   ** Warning ** GetDaylightingControls: Fraction of Zone controlled by the Daylighting reference points is < 1.0.\n   **   ~~~   ** ..discovered in \"Daylighting:Controls\" for Zone=\"PERIMETER_MID_ZN_4 ZN\", only 0.52 of the zone is controlled.\n   ** Warning ** GetDaylightingControls: Fraction of Zone controlled by the Daylighting reference points is < 1.0.\n   **   ~~~   ** ..discovered in \"Daylighting:Controls\" for Zone=\"PERIMETER_TOP_ZN_1 ZN\", only 0.52 of the zone is controlled.\n   ** Warning ** GetDaylightingControls: Fraction of Zone controlled by the Daylighting reference points is < 1.0.\n   **   ~~~   ** ..discovered in \"Daylighting:Controls\" for Zone=\"PERIMETER_TOP_ZN_2 ZN\", only 0.52 of the zone is controlled.\n   ** Warning ** GetDaylightingControls: Fraction of Zone controlled by the Daylighting reference points is < 1.0.\n   **   ~~~   ** ..discovered in \"Daylighting:Controls\" for Zone=\"PERIMETER_TOP_ZN_3 ZN\", only 0.52 of the zone is controlled.\n   ** Warning ** GetDaylightingControls: Fraction of Zone controlled by the Daylighting reference points is < 1.0.\n   **   ~~~   ** ..discovered in \"Daylighting:Controls\" for Zone=\"PERIMETER_TOP_ZN_4 ZN\", only 0.52 of the zone is controlled.\n   ************* Beginning System Sizing Calculations\n   ** Warning ** Since Zone Minimum Air Flow Input Method = CONSTANT, input for Fixed Minimum Air Flow Rate will be ignored.\n   **   ~~~   ** Occurs in AirTerminal:SingleDuct:VAV:NoReheat = CORE_BOTTOM ZN AIR TERMINAL\n   ** Warning ** Since Zone Minimum Air Flow Input Method = CONSTANT, input for Fixed Minimum Air Flow Rate will be ignored.\n   **   ~~~   ** Occurs in AirTerminal:SingleDuct:VAV:NoReheat = CORE_MID ZN AIR TERMINAL\n   ** Warning ** Since Zone Minimum Air Flow Input Method = CONSTANT, input for Fixed Minimum Air Flow Rate will be ignored.\n   **   ~~~   ** Occurs in AirTerminal:SingleDuct:VAV:NoReheat = CORE_TOP ZN AIR TERMINAL\n   ** Warning ** Since Zone Minimum Air Flow Input Method = CONSTANT, input for Fixed Minimum Air Flow Rate will be ignored.\n   **   ~~~   ** Occurs in AirTerminal:SingleDuct:VAV:NoReheat = PERIMETER_BOT_ZN_1 ZN AIR TERMINAL\n   ** Warning ** Since Zone Minimum Air Flow Input Method = CONSTANT, input for Fixed Minimum Air Flow Rate will be ignored.\n   **   ~~~   ** Occurs in AirTerminal:SingleDuct:VAV:NoReheat = PERIMETER_BOT_ZN_2 ZN AIR TERMINAL\n   ** Warning ** Since Zone Minimum Air Flow Input Method = CONSTANT, input for Fixed Minimum Air Flow Rate will be ignored.\n   **   ~~~   ** Occurs in AirTerminal:SingleDuct:VAV:NoReheat = PERIMETER_BOT_ZN_3 ZN AIR TERMINAL\n   ** Warning ** Since Zone Minimum Air Flow Input Method = CONSTANT, input for Fixed Minimum Air Flow Rate will be ignored.\n   **   ~~~   ** Occurs in AirTerminal:SingleDuct:VAV:NoReheat = PERIMETER_BOT_ZN_4 ZN AIR TERMINAL\n   ** Warning ** Since Zone Minimum Air Flow Input Method = CONSTANT, input for Fixed Minimum Air Flow Rate will be ignored.\n   **   ~~~   ** Occurs in AirTerminal:SingleDuct:VAV:NoReheat = PERIMETER_MID_ZN_1 ZN AIR TERMINAL\n   ** Warning ** Since Zone Minimum Air Flow Input Method = CONSTANT, input for Fixed Minimum Air Flow Rate will be ignored.\n   **   ~~~   ** Occurs in AirTerminal:SingleDuct:VAV:NoReheat = PERIMETER_MID_ZN_2 ZN AIR TERMINAL\n   ** Warning ** Since Zone Minimum Air Flow Input Method = CONSTANT, input for Fixed Minimum Air Flow Rate will be ignored.\n   **   ~~~   ** Occurs in AirTerminal:SingleDuct:VAV:NoReheat = PERIMETER_MID_ZN_3 ZN AIR TERMINAL\n   ** Warning ** Since Zone Minimum Air Flow Input Method = CONSTANT, input for Fixed Minimum Air Flow Rate will be ignored.\n   **   ~~~   ** Occurs in AirTerminal:SingleDuct:VAV:NoReheat = PERIMETER_MID_ZN_4 ZN AIR TERMINAL\n   ** Warning ** Since Zone Minimum Air Flow Input Method = CONSTANT, input for Fixed Minimum Air Flow Rate will be ignored.\n   **   ~~~   ** Occurs in AirTerminal:SingleDuct:VAV:NoReheat = PERIMETER_TOP_ZN_1 ZN AIR TERMINAL\n   ** Warning ** Since Zone Minimum Air Flow Input Method = CONSTANT, input for Fixed Minimum Air Flow Rate will be ignored.\n   **   ~~~   ** Occurs in AirTerminal:SingleDuct:VAV:NoReheat = PERIMETER_TOP_ZN_2 ZN AIR TERMINAL\n   ** Warning ** Since Zone Minimum Air Flow Input Method = CONSTANT, input for Fixed Minimum Air Flow Rate will be ignored.\n   **   ~~~   ** Occurs in AirTerminal:SingleDuct:VAV:NoReheat = PERIMETER_TOP_ZN_3 ZN AIR TERMINAL\n   ** Warning ** Since Zone Minimum Air Flow Input Method = CONSTANT, input for Fixed Minimum Air Flow Rate will be ignored.\n   **   ~~~   ** Occurs in AirTerminal:SingleDuct:VAV:NoReheat = PERIMETER_TOP_ZN_4 ZN AIR TERMINAL\n   ************* Beginning Plant Sizing Calculations\n   ** Warning ** Controller:MechanicalVentilation=\"15 ZONE DOAS MECHANICAL VENTILATION CONTROLLER\", Zone OA/person rate\n   **   ~~~   ** For Zone=\"CORE_BOTTOM ZN\".\n   **   ~~~   ** Zone outside air per person rate not set in Design Specification Outdoor Air Object=\"OFFICE WHOLEBUILDING - MD OFFICE VENTILATION\".\n   ** Warning ** Controller:MechanicalVentilation=\"15 ZONE DOAS MECHANICAL VENTILATION CONTROLLER\", Zone OA/person rate\n   **   ~~~   ** For Zone=\"CORE_MID ZN\".\n   **   ~~~   ** Zone outside air per person rate not set in Design Specification Outdoor Air Object=\"OFFICE WHOLEBUILDING - MD OFFICE VENTILATION\".\n   ** Warning ** Controller:MechanicalVentilation=\"15 ZONE DOAS MECHANICAL VENTILATION CONTROLLER\", Zone OA/person rate\n   **   ~~~   ** For Zone=\"CORE_TOP ZN\".\n   **   ~~~   ** Zone outside air per person rate not set in Design Specification Outdoor Air Object=\"OFFICE WHOLEBUILDING - MD OFFICE VENTILATION\".\n   ** Warning ** Controller:MechanicalVentilation=\"15 ZONE DOAS MECHANICAL VENTILATION CONTROLLER\", Zone OA/person rate\n   **   ~~~   ** For Zone=\"PERIMETER_BOT_ZN_1 ZN\".\n   **   ~~~   ** Zone outside air per person rate not set in Design Specification Outdoor Air Object=\"OFFICE WHOLEBUILDING - MD OFFICE VENTILATION\".\n   ** Warning ** Controller:MechanicalVentilation=\"15 ZONE DOAS MECHANICAL VENTILATION CONTROLLER\", Zone OA/person rate\n   **   ~~~   ** For Zone=\"PERIMETER_BOT_ZN_2 ZN\".\n   **   ~~~   ** Zone outside air per person rate not set in Design Specification Outdoor Air Object=\"OFFICE WHOLEBUILDING - MD OFFICE VENTILATION\".\n   ** Warning ** Controller:MechanicalVentilation=\"15 ZONE DOAS MECHANICAL VENTILATION CONTROLLER\", Zone OA/person rate\n   **   ~~~   ** For Zone=\"PERIMETER_BOT_ZN_3 ZN\".\n   **   ~~~   ** Zone outside air per person rate not set in Design Specification Outdoor Air Object=\"OFFICE WHOLEBUILDING - MD OFFICE VENTILATION\".\n   ** Warning ** Controller:MechanicalVentilation=\"15 ZONE DOAS MECHANICAL VENTILATION CONTROLLER\", Zone OA/person rate\n   **   ~~~   ** For Zone=\"PERIMETER_BOT_ZN_4 ZN\".\n   **   ~~~   ** Zone outside air per person rate not set in Design Specification Outdoor Air Object=\"OFFICE WHOLEBUILDING - MD OFFICE VENTILATION\".\n   ** Warning ** Controller:MechanicalVentilation=\"15 ZONE DOAS MECHANICAL VENTILATION CONTROLLER\", Zone OA/person rate\n   **   ~~~   ** For Zone=\"PERIMETER_MID_ZN_1 ZN\".\n   **   ~~~   ** Zone outside air per person rate not set in Design Specification Outdoor Air Object=\"OFFICE WHOLEBUILDING - MD OFFICE VENTILATION\".\n   ** Warning ** Controller:MechanicalVentilation=\"15 ZONE DOAS MECHANICAL VENTILATION CONTROLLER\", Zone OA/person rate\n   **   ~~~   ** For Zone=\"PERIMETER_MID_ZN_2 ZN\".\n   **   ~~~   ** Zone outside air per person rate not set in Design Specification Outdoor Air Object=\"OFFICE WHOLEBUILDING - MD OFFICE VENTILATION\".\n   ** Warning ** Controller:MechanicalVentilation=\"15 ZONE DOAS MECHANICAL VENTILATION CONTROLLER\", Zone OA/person rate\n   **   ~~~   ** For Zone=\"PERIMETER_MID_ZN_3 ZN\".\n   **   ~~~   ** Zone outside air per person rate not set in Design Specification Outdoor Air Object=\"OFFICE WHOLEBUILDING - MD OFFICE VENTILATION\".\n   ** Warning ** Controller:MechanicalVentilation=\"15 ZONE DOAS MECHANICAL VENTILATION CONTROLLER\", Zone OA/person rate\n   **   ~~~   ** For Zone=\"PERIMETER_MID_ZN_4 ZN\".\n   **   ~~~   ** Zone outside air per person rate not set in Design Specification Outdoor Air Object=\"OFFICE WHOLEBUILDING - MD OFFICE VENTILATION\".\n   ** Warning ** Controller:MechanicalVentilation=\"15 ZONE DOAS MECHANICAL VENTILATION CONTROLLER\", Zone OA/person rate\n   **   ~~~   ** For Zone=\"PERIMETER_TOP_ZN_1 ZN\".\n   **   ~~~   ** Zone outside air per person rate not set in Design Specification Outdoor Air Object=\"OFFICE WHOLEBUILDING - MD OFFICE VENTILATION\".\n   ** Warning ** Controller:MechanicalVentilation=\"15 ZONE DOAS MECHANICAL VENTILATION CONTROLLER\", Zone OA/person rate\n   **   ~~~   ** For Zone=\"PERIMETER_TOP_ZN_2 ZN\".\n   **   ~~~   ** Zone outside air per person rate not set in Design Specification Outdoor Air Object=\"OFFICE WHOLEBUILDING - MD OFFICE VENTILATION\".\n   ** Warning ** Controller:MechanicalVentilation=\"15 ZONE DOAS MECHANICAL VENTILATION CONTROLLER\", Zone OA/person rate\n   **   ~~~   ** For Zone=\"PERIMETER_TOP_ZN_3 ZN\".\n   **   ~~~   ** Zone outside air per person rate not set in Design Specification Outdoor Air Object=\"OFFICE WHOLEBUILDING - MD OFFICE VENTILATION\".\n   ** Warning ** Controller:MechanicalVentilation=\"15 ZONE DOAS MECHANICAL VENTILATION CONTROLLER\", Zone OA/person rate\n   **   ~~~   ** For Zone=\"PERIMETER_TOP_ZN_4 ZN\".\n   **   ~~~   ** Zone outside air per person rate not set in Design Specification Outdoor Air Object=\"OFFICE WHOLEBUILDING - MD OFFICE VENTILATION\".\n   ** Warning ** In calculating the design coil UA for Coil:Cooling:Water 15 ZONE DOAS CLG COIL\n   **   ~~~   ** the apparatus dew-point is below the coil design inlet water temperature;\n   **   ~~~   ** the coil outlet design conditions will be changed to correct the problem.\n   **   ~~~   ** The initial design conditions are: Tair,in = 36.0000\n   **   ~~~   **                                    Wair,in = 1.519472E-002\n   **   ~~~   **                                    Twater,in = 6.6667\n   **   ~~~   **                                    Tair,out = 14.5196\n   **   ~~~   **                                    Wair,out = 8.500000E-003\n   **   ~~~   ** The revised design conditions are: Tair,out = 13.7164\n   **   ~~~   **                                    Wair,out = 8.824456E-003\n   ** Warning ** GetElectricEIRChillerInput: Chiller:Electric:EIR=\"NREL ZNE READY 2017 WATERCOOLED  ROTARY SCREW CHILLER 0 105TONS 0.6KW/TON\"\n   **   ~~~   ** Energy input ratio as a function of temperature curve output is not equal to 1.0 (+ or - 10%) at reference conditions.\n   **   ~~~   ** Curve output at reference conditions = 1.205\n   ** Warning ** Missing temperature setpoint for LeavingSetpointModulated mode Boiler named BOILER 639KBTU/HR 0.94 COMBUSTION EFF\n   **   ~~~   **   A temperature setpoint is needed at the outlet node of a boiler in variable flow mode\n   **   ~~~   **   use a Setpoint Manager to establish a setpoint at the boiler outlet node \n   **   ~~~   **   or use an EMS actuator to establish a setpoint at the boiler outlet node \n   **   ~~~   **   The overall loop setpoint will be assumed for Boiler. The simulation continues ... \n   ** Warning ** Output:Meter: invalid Key Name=\"DISTRICTCOOLING:FACILITY\" - not found.\n   ** Warning ** Output:Meter: invalid Key Name=\"DISTRICTHEATING:FACILITY\" - not found.\n   ** Warning ** Output:Meter:MeterFileOnly requested for \"Electricity:Facility\" (TimeStep), already on \"Output:Meter\". Will report to both eplusout.eso and eplusout.mtr\n   ************* Testing Individual Branch Integrity\n   ************* All Branches passed integrity testing\n   ************* Testing Individual Supply Air Path Integrity\n   ************* All Supply Air Paths passed integrity testing\n   ************* Testing Individual Return Air Path Integrity\n   ************* All Return Air Paths passed integrity testing\n   ************* No node connection errors were found.\n   ************* Beginning Simulation\n   ** Warning ** Processing Monthly Tabular Reports: Variable names not valid for this simulation\n   **   ~~~   ** ...use Output:Diagnostics,DisplayExtraWarnings; to show more details on individual variables.\n   ** Warning ** CoolingTower:VariableSpeed \"PROPELLER OR AXIAL VARIABLE SPEED FAN OPEN COOLING TOWER\" - Tower range temperature is outside model boundaries at 2.32E-002.\n   **   ~~~   **  ...Valid range = 1.11 to 11.11. Occurrence info = RUN PERIOD 1, 01/01 12:00 - 12:10\n   **   ~~~   **  ...Tower range temperature passed to the model = 2.31777E-002\n   **   ~~~   **  ...Range temperatures outside model boundaries may not adversely affect tower performance.\n   **   ~~~   **  ...This is not an unexpected occurrence when simulating actual conditions.\n   ** Warning ** CoolingTower:VariableSpeed \"PROPELLER OR AXIAL VARIABLE SPEED FAN OPEN COOLING TOWER\" - Tower approach temperature is outside model boundaries at 12.40.\n   **   ~~~   **  ...Valid range = 1.11 to 11.11. Occurrence info = RUN PERIOD 1, 01/01 12:00 - 12:10\n   **   ~~~   **  ...Tower approach temperature passed to the model = 12.39847\n   **   ~~~   **  ...Approach temperatures outside model boundaries may not adversely affect tower performance.\n   **   ~~~   **  ...This is not an unexpected occurrence when simulating actual conditions.\n   ** Warning ** CoolingTower:VariableSpeed \"PROPELLER OR AXIAL VARIABLE SPEED FAN OPEN COOLING TOWER\" - Inlet air wet-bulb temperature is outside model boundaries at -2.01.\n   **   ~~~   **  ...Valid range = -1.00 to 26.67. Occurrence info = RUN PERIOD 1, 01/11 07:55 - 07:60\n   **   ~~~   **  ...Inlet air wet-bulb temperature passed to the model = -1.000000\n   **   ~~~   **  ...Wet-bulb temperatures outside model boundaries may not adversely affect tower performance.\n   ** Warning ** CoolingTower:VariableSpeed \"PROPELLER OR AXIAL VARIABLE SPEED FAN OPEN COOLING TOWER\" - Inlet air wet-bulb temperature is outside model boundaries at -1.71.\n   **   ~~~   **  ...Valid range = -1.00 to 26.67. Occurrence info = RUN PERIOD 1, 01/11 08:00 - 08:02\n   **   ~~~   **  ...Inlet air wet-bulb temperature passed to the model = -1.000000\n   **   ~~~   **  ...Wet-bulb temperatures outside model boundaries may not adversely affect tower performance.\n   ** Warning ** CoolingTower:VariableSpeed \"PROPELLER OR AXIAL VARIABLE SPEED FAN OPEN COOLING TOWER\" - Inlet air wet-bulb temperature is outside model boundaries at -1.71.\n   **   ~~~   **  ...Valid range = -1.00 to 26.67. Occurrence info = RUN PERIOD 1, 01/11 08:02 - 08:04\n   **   ~~~   **  ...Inlet air wet-bulb temperature passed to the model = -1.000000\n   **   ~~~   **  ...Wet-bulb temperatures outside model boundaries may not adversely affect tower performance.\n   ** Warning ** CoolingTower:VariableSpeed \"PROPELLER OR AXIAL VARIABLE SPEED FAN OPEN COOLING TOWER\" - Inlet air wet-bulb temperature is outside model boundaries at -1.71.\n   **   ~~~   **  ...Valid range = -1.00 to 26.67. Occurrence info = RUN PERIOD 1, 01/11 08:04 - 08:06\n   **   ~~~   **  ...Inlet air wet-bulb temperature passed to the model = -1.000000\n   **   ~~~   **  ...Wet-bulb temperatures outside model boundaries may not adversely affect tower performance.\n   ** Warning ** CoolingTower:VariableSpeed \"PROPELLER OR AXIAL VARIABLE SPEED FAN OPEN COOLING TOWER\" - Inlet air wet-bulb temperature is outside model boundaries at -1.71.\n   **   ~~~   **  ...Valid range = -1.00 to 26.67. Occurrence info = RUN PERIOD 1, 01/11 08:06 - 08:08\n   **   ~~~   **  ...Inlet air wet-bulb temperature passed to the model = -1.000000\n   **   ~~~   **  ...Wet-bulb temperatures outside model boundaries may not adversely affect tower performance.\n   ** Warning ** Part-load ratio cooling control failed in fan coil unit CORE_TOP ZN FCU\n   **   ~~~   **   Bad part-load ratio limits\n   **   ~~~   ** ..Part-load ratio set to 0 Environment=RUN PERIOD 1, at Simulation time=05/13 19:00 - 19:10\n   ** Warning ** Part-load ratio cooling control failed in fan coil unit CORE_TOP ZN FCU\n   **   ~~~   **   Iteration limit exceeded in calculating FCU part-load ratio \n   **   ~~~   ** Load Request = -1514, Final Capacity = -1509 Environment=RUN PERIOD 1, at Simulation time=12/13 21:30 - 21:40\n   **   ~~~   ** Min part-load used during iterations = 0, Max part-load used during iterations = 1\n   **   ~~~   **  Environment=RUN PERIOD 1, at Simulation time=12/13 21:30 - 21:40\n   **   ~~~   ** Part-load ratio on last iteration = 0 Environment=RUN PERIOD 1, at Simulation time=12/13 21:30 - 21:40\n   **   ~~~   ** ..Part-load ratio set to last iteration value  Environment=RUN PERIOD 1, at Simulation time=12/13 21:30 - 21:40\n   ** Warning ** The resource referenced by LifeCycleCost:UsePriceEscalation= \"U.S. AVG  COMMERCIAL-ELECTRICITY\" has no energy cost. \n   **   ~~~   ** ... It is likely that the wrong resource is used. The resource should match the meter used in Utility:Tariff.\n   ** Warning ** The resource referenced by LifeCycleCost:UsePriceEscalation= \"U.S. AVG  COMMERCIAL-DISTILLATE OIL\" has no energy cost. \n   **   ~~~   ** ... It is likely that the wrong resource is used. The resource should match the meter used in Utility:Tariff.\n   ** Warning ** The resource referenced by LifeCycleCost:UsePriceEscalation= \"U.S. AVG  COMMERCIAL-RESIDUAL OIL\" has no energy cost. \n   **   ~~~   ** ... It is likely that the wrong resource is used. The resource should match the meter used in Utility:Tariff.\n   ** Warning ** The resource referenced by LifeCycleCost:UsePriceEscalation= \"U.S. AVG  COMMERCIAL-NATURAL GAS\" has no energy cost. \n   **   ~~~   ** ... It is likely that the wrong resource is used. The resource should match the meter used in Utility:Tariff.\n   ** Warning ** The resource referenced by LifeCycleCost:UsePriceEscalation= \"U.S. AVG  COMMERCIAL-COAL\" has no energy cost. \n   **   ~~~   ** ... It is likely that the wrong resource is used. The resource should match the meter used in Utility:Tariff.\n   ************* Simulation Error Summary *************\n   ************* There are 11 unused schedules in input.\n   ************* There are 11 unused week schedules in input.\n   ************* There are 25 unused day schedules in input.\n   ************* Use Output:Diagnostics,DisplayUnusedSchedules; to see them.\n   *************\n   ************* ===== Recurring Error Summary =====\n   ************* The following recurring error messages occurred.\n   *************\n   *************  ** Warning ** CoolingTower:VariableSpeed \"PROPELLER OR AXIAL VARIABLE SPEED FAN OPEN COOLING TOWER\" - Tower range temperature is out of range error continues...\n   *************  **   ~~~   **   This error occurred 13899 total times;\n   *************  **   ~~~   **   during Warmup 0 times;\n   *************  **   ~~~   **   during Sizing 0 times.\n   *************  **   ~~~   **   Max=1.111081  Min=2.004825E-005\n   *************\n   *************  ** Warning ** CoolingTower:VariableSpeed \"PROPELLER OR AXIAL VARIABLE SPEED FAN OPEN COOLING TOWER\" - Tower approach temperature is out of range error continues...\n   *************  **   ~~~   **   This error occurred 6015 total times;\n   *************  **   ~~~   **   during Warmup 0 times;\n   *************  **   ~~~   **   during Sizing 0 times.\n   *************  **   ~~~   **   Max=27.673498  Min=11.111112\n   *************\n   *************  ** Warning ** CoolingTower:VariableSpeed \"PROPELLER OR AXIAL VARIABLE SPEED FAN OPEN COOLING TOWER\" - Inlet air wet-bulb temperature is out of range error continues...\n   *************  **   ~~~   **   This error occurred 234 total times;\n   *************  **   ~~~   **   during Warmup 0 times;\n   *************  **   ~~~   **   during Sizing 0 times.\n   *************  **   ~~~   **   Max=27.05213  Min=-6.562387\n   *************\n   *************  ** Warning ** Part-load ratio cooling control failed in fan coil unit CORE_TOP ZN FCU\n   *************  **   ~~~   **   This error occurred 1 total times;\n   *************  **   ~~~   **   during Warmup 0 times;\n   *************  **   ~~~   **   during Sizing 0 times.\n   *************\n   *************  ** Warning ** Part-load ratio cooling iteration limit exceeded in fan coil unit CORE_TOP ZN FCU\n   *************  **   ~~~   **   This error occurred 1 total times;\n   *************  **   ~~~   **   during Warmup 0 times;\n   *************  **   ~~~   **   during Sizing 0 times.\n   *************\n   *************\n   ************* ===== Final Error Summary =====\n   ************* The following error categories occurred.  Consider correcting or noting.\n   ************* Nominally Unused Constructions\n   ************* ..The nominally unused constructions warning is provided to alert you to potential conditions that can cause\n   ************* ..extra time during simulation. Each construction is calculated by the algorithm indicated in the HeatBalanceAlgorithm\n   ************* ..object. You may remove the constructions indicated (when you use the DisplayExtraWarnings option).\n   *************\n   ************* EnergyPlus Warmup Error Summary. During Warmup: 0 Warning; 0 Severe Errors.\n   ************* EnergyPlus Sizing Error Summary. During Sizing: 41 Warning; 0 Severe Errors.\n   ************* EnergyPlus Completed Successfully-- 20227 Warning; 0 Severe Errors; Elapsed Time=00hr 01min 12.20sec\n",
   "hash" : "D4464F78",
   "seed_file" : "/Users/dgoldwas/Documents/GitHub/NREL/OpenStudio-measures/nrel_published/nze_hvac/tests/output/test_humid_office_doas_fancoils_dcv/test_humid_office_doas_fancoils_dcv.osm",
   "started_at" : "20190410T050828Z",
   "steps" : [],
   "updated_at" : "20190410T050943Z",
   "weather_file" : "/Users/dgoldwas/Documents/GitHub/NREL/OpenStudio-measures/nrel_published/nze_hvac/tests/output/test_humid_office_doas_fancoils_dcv/USA_TX_Houston-Bush.Intercontinental.AP.722430_TMY3.epw"
}
