Program Version,EnergyPlus, Version 9.1.0-08d2e308bb, YMD=2019.04.09 23:12
! This file shows details about the branches, nodes, and other
! elements of the flow connections.
! This file is intended for use in "debugging" potential problems
! that may also be detected by the program, but may be more easily
! identified by "eye".
! This file is also intended to support software which draws a
! schematic diagram of the HVAC system.
! ===============================================================
! #Nodes,<Number of Unique Nodes>
 #Nodes,71
! <Node>,<NodeNumber>,<Node Name>,<Node Fluid Type>,<# Times Node Referenced After Definition>
 Node,1,TZ_DINING VAV TERMINAL OUTLET AIR NODE,Air,4
 Node,2,TZ_DINING RETURN AIR NODE,Air,2
 Node,3,TZ_KITCHEN VAV TERMINAL OUTLET AIR NODE,Air,4
 Node,4,TZ_KITCHEN RETURN AIR NODE,Air,2
 Node,5,TZ_LOBBY VAV TERMINAL OUTLET AIR NODE,Air,4
 Node,6,TZ_LOBBY RETURN AIR NODE,Air,2
 Node,7,3 ZONE VAV SUPPLY OUTLET NODE,Air,10
 Node,8,3 ZONE VAV DEMAND INLET NODE,Air,3
 Node,9,3 ZONE VAV SUPPLY INLET NODE,Air,4
 Node,10,3 ZONE VAV MIXED AIR NODE,Air,7
 Node,11,3 ZONE VAV CLG COIL OUTLET AIR NODE,Air,5
 Node,12,3 ZONE VAV MAIN HTG COIL OUTLET AIR NODE,Air,8
 Node,13,CHILLED WATER LOOP SUPPLY INLET NODE,Water,2
 Node,14,CHILLED WATER LOOP PUMP OUTLET WATER NODE,Water,1
 Node,15,NREL ZNE READY 2017    CHILLER 0 SUPPLY INLET WATER NODE,Water,1
 Node,16,NREL ZNE READY 2017    CHILLER 0 SUPPLY OUTLET WATER NODE,Water,1
 Node,17,CHILLED WATER LOOP CHILLER BYPASS INLET WATER NODE,Water,1
 Node,18,CHILLED WATER LOOP CHILLER BYPASS OUTLET WATER NODE,Water,1
 Node,19,CHILLED WATER LOOP SUPPLY OUTLET INLET WATER NODE,Water,1
 Node,20,CHILLED WATER LOOP SUPPLY OUTLET NODE,Water,4
 Node,21,CHILLED WATER LOOP DEMAND INLET NODE,Water,2
 Node,22,CHILLED WATER LOOP DEMAND INLET OUTLET WATER NODE,Water,1
 Node,23,CHILLED WATER LOOP COIL BYPASS INLET WATER NODE,Water,1
 Node,24,CHILLED WATER LOOP COIL BYPASS OUTLET WATER NODE,Water,1
 Node,25,3 ZONE VAV CLG COIL INLET WATER NODE,Water,2
 Node,26,3 ZONE VAV CLG COIL OUTLET WATER NODE,Water,1
 Node,27,CHILLED WATER LOOP DEMAND BYPASS PIPE INLET NODE,Water,1
 Node,28,CHILLED WATER LOOP DEMAND BYPASS PIPE OUTLET NODE,Water,1
 Node,29,CHILLED WATER LOOP DEMAND OUTLET INLET WATER NODE,Water,1
 Node,30,CHILLED WATER LOOP DEMAND OUTLET NODE,Water,2
 Node,31,HOT WATER LOOP SUPPLY INLET NODE,Water,2
 Node,32,HOT WATER LOOP PUMP OUTLET WATER NODE,Water,1
 Node,33,BOILER INLET WATER NODE,Water,1
 Node,34,BOILER OUTLET WATER NODE,Water,1
 Node,35,HOT WATER LOOP SUPPLY EQUIPMENT BYPASS INLET WATER NODE,Water,1
 Node,36,HOT WATER LOOP SUPPLY EQUIPMENT BYPASS OUTLET WATER NODE,Water,1
 Node,37,HOT WATER LOOP SUPPLY OUTLET INLET WATER NODE,Water,1
 Node,38,HOT WATER LOOP SUPPLY OUTLET NODE,Water,4
 Node,39,HOT WATER LOOP DEMAND INLET NODE,Water,2
 Node,40,HOT WATER LOOP DEMAND INLET OUTLET WATER NODE,Water,1
 Node,41,HOT WATER LOOP COIL BYPASS INLET WATER NODE,Water,1
 Node,42,HOT WATER LOOP COIL BYPASS OUTLET WATER NODE,Water,1
 Node,43,3 ZONE VAV MAIN HTG COIL INLET WATER NODE,Water,2
 Node,44,3 ZONE VAV MAIN HTG COIL OUTLET WATER NODE,Water,1
 Node,45,TZ_KITCHEN REHEAT COIL INLET WATER NODE,Water,1
 Node,46,TZ_KITCHEN REHEAT COIL OUTLET WATER NODE,Water,1
 Node,47,TZ_DINING REHEAT COIL INLET WATER NODE,Water,1
 Node,48,TZ_DINING REHEAT COIL OUTLET WATER NODE,Water,1
 Node,49,TZ_LOBBY REHEAT COIL INLET WATER NODE,Water,1
 Node,50,TZ_LOBBY REHEAT COIL OUTLET WATER NODE,Water,1
 Node,51,HOT WATER LOOP DEMAND BYPASS PIPE INLET NODE,Water,1
 Node,52,HOT WATER LOOP DEMAND BYPASS PIPE OUTLET NODE,Water,1
 Node,53,HOT WATER LOOP DEMAND OUTLET INLET WATER NODE,Water,1
 Node,54,HOT WATER LOOP DEMAND OUTLET NODE,Water,2
 Node,55,TZ_DINING ZONE AIR NODE,Air,0
 Node,56,TZ_KITCHEN ZONE AIR NODE,Air,0
 Node,57,TZ_LOBBY ZONE AIR NODE,Air,0
 Node,58,3 ZONE VAV DEMAND OUTLET NODE,Air,2
 Node,59,3 ZONE VAV OUTDOOR AIR NODE,Air,3
 Node,60,NREL ZNE READY 2017    CHILLER 0 11TONS 1.1KW/TON INLET NODE FOR CONDENSER,Air,1
 Node,61,MODEL OUTDOOR AIR NODE,Air,0
 Node,62,NODE 2,Air,2
 Node,63,TZ_KITCHEN VAV TERMINAL INLET AIR NODE,Air,1
 Node,64,TZ_DINING VAV TERMINAL INLET AIR NODE,Air,1
 Node,65,TZ_LOBBY VAV TERMINAL INLET AIR NODE,Air,1
 Node,66,TZ_DINING VAV TERMINAL DAMPER OUTLET,Air,1
 Node,67,TZ_KITCHEN VAV TERMINAL DAMPER OUTLET,Air,1
 Node,68,TZ_LOBBY VAV TERMINAL DAMPER OUTLET,Air,1
 Node,69,NODE 3,Air,2
 Node,70,3 ZONE VAV RELIEF AIR NODE,Air,0
 Node,71,NREL ZNE READY 2017    CHILLER 0 11TONS 1.1KW/TON OUTLET NODE FOR CONDENSER,Air,0
! ===============================================================
! Suspicious nodes have 0 references.  It is normal for some nodes, however.
! Listing nodes with 0 references (culled from previous list):
! <Suspicious Node>,<NodeNumber>,<Node Name>,<Node Fluid Type>,<# Times Node Referenced After Definition>
 Suspicious Node,55,TZ_DINING ZONE AIR NODE,Air,0
 Suspicious Node,56,TZ_KITCHEN ZONE AIR NODE,Air,0
 Suspicious Node,57,TZ_LOBBY ZONE AIR NODE,Air,0
 Suspicious Node,61,MODEL OUTDOOR AIR NODE,Air,0
 Suspicious Node,70,3 ZONE VAV RELIEF AIR NODE,Air,0
 Suspicious Node,71,NREL ZNE READY 2017    CHILLER 0 11TONS 1.1KW/TON OUTLET NODE FOR CONDENSER,Air,0
! ===============================================================
! <#Branch Lists>,<Number of Branch Lists>
 #Branch Lists,5
! <Branch List>,<Branch List Count>,<Branch List Name>,<Loop Name>,<Loop Type>,<Number of Branches>
! <Branch>,<Branch Count>,<Branch Name>,<Loop Name>,<Loop Type>,<Branch Inlet Node Name>,<Branch Outlet Node Name>
 Branch List,1,3 ZONE VAV SUPPLY BRANCHES,3 ZONE VAV,Air,1
   Branch,1,3 ZONE VAV MAIN BRANCH,3 ZONE VAV,Air,3 ZONE VAV SUPPLY INLET NODE,3 ZONE VAV SUPPLY OUTLET NODE
 Branch List,2,CHILLED WATER LOOP SUPPLY BRANCHES,CHILLED WATER LOOP,Plant Supply,4
   Branch,1,CHILLED WATER LOOP SUPPLY INLET BRANCH,CHILLED WATER LOOP,Plant Supply,CHILLED WATER LOOP SUPPLY INLET NODE,CHILLED WATER LOOP PUMP OUTLET WATER NODE
   Branch,2,CHILLED WATER LOOP SUPPLY BRANCH 1,CHILLED WATER LOOP,Plant Supply,NREL ZNE READY 2017    CHILLER 0 SUPPLY INLET WATER NODE,NREL ZNE READY 2017    CHILLER 0 SUPPLY OUTLET WATER NODE
   Branch,3,CHILLED WATER LOOP SUPPLY BRANCH 2,CHILLED WATER LOOP,Plant Supply,CHILLED WATER LOOP CHILLER BYPASS INLET WATER NODE,CHILLED WATER LOOP CHILLER BYPASS OUTLET WATER NODE
   Branch,4,CHILLED WATER LOOP SUPPLY OUTLET BRANCH,CHILLED WATER LOOP,Plant Supply,CHILLED WATER LOOP SUPPLY OUTLET INLET WATER NODE,CHILLED WATER LOOP SUPPLY OUTLET NODE
 Branch List,3,CHILLED WATER LOOP DEMAND BRANCHES,CHILLED WATER LOOP,Plant Demand,5
   Branch,1,CHILLED WATER LOOP DEMAND INLET BRANCH,CHILLED WATER LOOP,Plant Demand,CHILLED WATER LOOP DEMAND INLET NODE,CHILLED WATER LOOP DEMAND INLET OUTLET WATER NODE
   Branch,2,CHILLED WATER LOOP DEMAND BRANCH 1,CHILLED WATER LOOP,Plant Demand,CHILLED WATER LOOP COIL BYPASS INLET WATER NODE,CHILLED WATER LOOP COIL BYPASS OUTLET WATER NODE
   Branch,3,CHILLED WATER LOOP DEMAND BRANCH 2,CHILLED WATER LOOP,Plant Demand,3 ZONE VAV CLG COIL INLET WATER NODE,3 ZONE VAV CLG COIL OUTLET WATER NODE
   Branch,4,CHILLED WATER LOOP DEMAND BYPASS BRANCH,CHILLED WATER LOOP,Plant Demand,CHILLED WATER LOOP DEMAND BYPASS PIPE INLET NODE,CHILLED WATER LOOP DEMAND BYPASS PIPE OUTLET NODE
   Branch,5,CHILLED WATER LOOP DEMAND OUTLET BRANCH,CHILLED WATER LOOP,Plant Demand,CHILLED WATER LOOP DEMAND OUTLET INLET WATER NODE,CHILLED WATER LOOP DEMAND OUTLET NODE
 Branch List,4,HOT WATER LOOP SUPPLY BRANCHES,HOT WATER LOOP,Plant Supply,4
   Branch,1,HOT WATER LOOP SUPPLY INLET BRANCH,HOT WATER LOOP,Plant Supply,HOT WATER LOOP SUPPLY INLET NODE,HOT WATER LOOP PUMP OUTLET WATER NODE
   Branch,2,HOT WATER LOOP SUPPLY BRANCH 1,HOT WATER LOOP,Plant Supply,BOILER INLET WATER NODE,BOILER OUTLET WATER NODE
   Branch,3,HOT WATER LOOP SUPPLY BRANCH 2,HOT WATER LOOP,Plant Supply,HOT WATER LOOP SUPPLY EQUIPMENT BYPASS INLET WATER NODE,HOT WATER LOOP SUPPLY EQUIPMENT BYPASS OUTLET WATER NODE
   Branch,4,HOT WATER LOOP SUPPLY OUTLET BRANCH,HOT WATER LOOP,Plant Supply,HOT WATER LOOP SUPPLY OUTLET INLET WATER NODE,HOT WATER LOOP SUPPLY OUTLET NODE
 Branch List,5,HOT WATER LOOP DEMAND BRANCHES,HOT WATER LOOP,Plant Demand,8
   Branch,1,HOT WATER LOOP DEMAND INLET BRANCH,HOT WATER LOOP,Plant Demand,HOT WATER LOOP DEMAND INLET NODE,HOT WATER LOOP DEMAND INLET OUTLET WATER NODE
   Branch,2,HOT WATER LOOP DEMAND BRANCH 1,HOT WATER LOOP,Plant Demand,HOT WATER LOOP COIL BYPASS INLET WATER NODE,HOT WATER LOOP COIL BYPASS OUTLET WATER NODE
   Branch,3,HOT WATER LOOP DEMAND BRANCH 2,HOT WATER LOOP,Plant Demand,3 ZONE VAV MAIN HTG COIL INLET WATER NODE,3 ZONE VAV MAIN HTG COIL OUTLET WATER NODE
   Branch,4,HOT WATER LOOP DEMAND BRANCH 3,HOT WATER LOOP,Plant Demand,TZ_KITCHEN REHEAT COIL INLET WATER NODE,TZ_KITCHEN REHEAT COIL OUTLET WATER NODE
   Branch,5,HOT WATER LOOP DEMAND BRANCH 4,HOT WATER LOOP,Plant Demand,TZ_DINING REHEAT COIL INLET WATER NODE,TZ_DINING REHEAT COIL OUTLET WATER NODE
   Branch,6,HOT WATER LOOP DEMAND BRANCH 5,HOT WATER LOOP,Plant Demand,TZ_LOBBY REHEAT COIL INLET WATER NODE,TZ_LOBBY REHEAT COIL OUTLET WATER NODE
   Branch,7,HOT WATER LOOP DEMAND BYPASS BRANCH,HOT WATER LOOP,Plant Demand,HOT WATER LOOP DEMAND BYPASS PIPE INLET NODE,HOT WATER LOOP DEMAND BYPASS PIPE OUTLET NODE
   Branch,8,HOT WATER LOOP DEMAND OUTLET BRANCH,HOT WATER LOOP,Plant Demand,HOT WATER LOOP DEMAND OUTLET INLET WATER NODE,HOT WATER LOOP DEMAND OUTLET NODE
! ===============================================================
! <#Supply Air Paths>,<Number of Supply Air Paths>
 #Supply Air Paths,1
! <Supply Air Path>,<Supply Air Path Count>,<Supply Air Path Name>,<AirLoopHVAC Name>
! <#Components on Supply Air Path>,<Number of Components>
! <Supply Air Path Component>,<Component Count>,<Component Type>,<Component Name>,<AirLoopHVAC Name>
! <#Outlet Nodes on Supply Air Path Component>,<Number of Nodes>
! <Supply Air Path Component Nodes>,<Node Count>,<Component Type>,<Component Name>,<Inlet Node Name>,<Outlet Node Name>,<AirLoopHVAC Name>
 Supply Air Path,1,3 ZONE VAV 3 ZONE VAV DEMAND INLET NODE SUPPLY PATH,3 ZONE VAV
   #Components on Supply Air Path,1
   Supply Air Path Component,1,AIRLOOPHVAC:ZONESPLITTER,AIR LOOP HVAC ZONE SPLITTER 1,3 ZONE VAV
     #Outlet Nodes on Supply Air Path Component,3
     Supply Air Path Component Nodes,1,AIRLOOPHVAC:ZONESPLITTER,AIR LOOP HVAC ZONE SPLITTER 1,3 ZONE VAV DEMAND INLET NODE,TZ_KITCHEN VAV TERMINAL INLET AIR NODE,3 ZONE VAV
     Supply Air Path Component Nodes,2,AIRLOOPHVAC:ZONESPLITTER,AIR LOOP HVAC ZONE SPLITTER 1,3 ZONE VAV DEMAND INLET NODE,TZ_DINING VAV TERMINAL INLET AIR NODE,3 ZONE VAV
     Supply Air Path Component Nodes,3,AIRLOOPHVAC:ZONESPLITTER,AIR LOOP HVAC ZONE SPLITTER 1,3 ZONE VAV DEMAND INLET NODE,TZ_LOBBY VAV TERMINAL INLET AIR NODE,3 ZONE VAV
! <#Nodes on Supply Air Path>,<Number of Nodes>
! <Supply Air Path Node>,<Node Type>,<Node Count>,<Node Name>,<AirLoopHVAC Name>
#Nodes on Supply Air Path,4
   Supply Air Path Node,Inlet Node,1,3 ZONE VAV DEMAND INLET NODE,3 ZONE VAV
   Supply Air Path Node,Outlet Node,2,TZ_KITCHEN VAV TERMINAL INLET AIR NODE,3 ZONE VAV
   Supply Air Path Node,Outlet Node,3,TZ_DINING VAV TERMINAL INLET AIR NODE,3 ZONE VAV
   Supply Air Path Node,Outlet Node,4,TZ_LOBBY VAV TERMINAL INLET AIR NODE,3 ZONE VAV
! ===============================================================
! <#Return Air Paths>,<Number of Return Air Paths>
 #Return Air Paths,1
! <Return Air Path>,<Return Air Path Count>,<Return Air Path Name>,<AirLoopHVAC Name>
! <#Components on Return Air Path>,<Number of Components>
! <Return Air Path Component>,<Component Count>,<Component Type>,<Component Name>,<AirLoopHVAC Name>
! <#Inlet Nodes on Return Air Path Component>,<Number of Nodes>
! <Return Air Path Component Nodes>,<Node Count>,<Component Type>,<Component Name>,<Inlet Node Name>,<Outlet Node Name>,<AirLoopHVAC Name>
 Return Air Path,1,3 ZONE VAV RETURN PATH,3 ZONE VAV
   #Components on Return Air Path,1
   Return Air Path Component,1,AIRLOOPHVAC:ZONEMIXER,AIR LOOP HVAC ZONE MIXER 1,3 ZONE VAV
     #Inlet Nodes on Return Air Path Component,3
     Return Air Path Component Nodes,1,AIRLOOPHVAC:ZONEMIXER,AIR LOOP HVAC ZONE MIXER 1,TZ_KITCHEN RETURN AIR NODE,3 ZONE VAV DEMAND OUTLET NODE,3 ZONE VAV
     Return Air Path Component Nodes,2,AIRLOOPHVAC:ZONEMIXER,AIR LOOP HVAC ZONE MIXER 1,TZ_DINING RETURN AIR NODE,3 ZONE VAV DEMAND OUTLET NODE,3 ZONE VAV
     Return Air Path Component Nodes,3,AIRLOOPHVAC:ZONEMIXER,AIR LOOP HVAC ZONE MIXER 1,TZ_LOBBY RETURN AIR NODE,3 ZONE VAV DEMAND OUTLET NODE,3 ZONE VAV
! <#Nodes on Return Air Path>,<Number of Nodes>
! <Return Air Path Node>,<Node Type>,<Node Count>,<Node Name>,<AirLoopHVAC Name>
   #Nodes on Return Air Path,4
   Return Air Path Node,Outlet Node,1,3 ZONE VAV DEMAND OUTLET NODE,3 ZONE VAV
   Return Air Path Node,Inlet Node,2,TZ_KITCHEN RETURN AIR NODE,3 ZONE VAV
   Return Air Path Node,Inlet Node,3,TZ_DINING RETURN AIR NODE,3 ZONE VAV
   Return Air Path Node,Inlet Node,4,TZ_LOBBY RETURN AIR NODE,3 ZONE VAV
! ===============================================================
! #Outdoor Air Nodes,<Number of Outdoor Air Nodes>
 #Outdoor Air Nodes,3
! <Outdoor Air Node>,<NodeNumber>,<Node Name>
 Outdoor Air Node,59,3 ZONE VAV OUTDOOR AIR NODE
 Outdoor Air Node,60,NREL ZNE READY 2017    CHILLER 0 11TONS 1.1KW/TON INLET NODE FOR CONDENSER
 Outdoor Air Node,61,MODEL OUTDOOR AIR NODE
! ===============================================================
! <#Component Sets>,<Number of Component Sets>
 #Component Sets,33
! <Component Set>,<Component Set Count>,<Parent Object Type>,<Parent Object Name>,<Component Type>,<Component Name>,<Inlet Node ID>,<Outlet Node ID>,<Description>
 Component Set,1,BRANCH,3 ZONE VAV MAIN BRANCH,AIRLOOPHVAC:OUTDOORAIRSYSTEM,3 ZONE VAV OA SYSTEM,3 ZONE VAV SUPPLY INLET NODE,3 ZONE VAV MIXED AIR NODE,Air Nodes
 Component Set,2,BRANCH,3 ZONE VAV MAIN BRANCH,COIL:COOLING:WATER,3 ZONE VAV CLG COIL,3 ZONE VAV MIXED AIR NODE,3 ZONE VAV CLG COIL OUTLET AIR NODE,Air Nodes
 Component Set,3,BRANCH,3 ZONE VAV MAIN BRANCH,COIL:HEATING:WATER,3 ZONE VAV MAIN HTG COIL,3 ZONE VAV CLG COIL OUTLET AIR NODE,3 ZONE VAV MAIN HTG COIL OUTLET AIR NODE,Air Nodes
 Component Set,4,BRANCH,3 ZONE VAV MAIN BRANCH,FAN:VARIABLEVOLUME,3 ZONE VAV FAN,3 ZONE VAV MAIN HTG COIL OUTLET AIR NODE,3 ZONE VAV SUPPLY OUTLET NODE,Air Nodes
 Component Set,5,BRANCH,CHILLED WATER LOOP SUPPLY INLET BRANCH,PUMP:VARIABLESPEED,CHILLED WATER LOOP PUMP,CHILLED WATER LOOP SUPPLY INLET NODE,CHILLED WATER LOOP PUMP OUTLET WATER NODE,Water Nodes
 Component Set,6,BRANCH,CHILLED WATER LOOP SUPPLY BRANCH 1,CHILLER:ELECTRIC:EIR,NREL ZNE READY 2017    CHILLER 0 11TONS 1.1KW/TON,NREL ZNE READY 2017    CHILLER 0 SUPPLY INLET WATER NODE,NREL ZNE READY 2017    CHILLER 0 SUPPLY OUTLET WATER NODE,Chilled Water Nodes
 Component Set,7,BRANCH,CHILLED WATER LOOP SUPPLY BRANCH 2,PIPE:ADIABATIC,CHILLED WATER LOOP CHILLER BYPASS,CHILLED WATER LOOP CHILLER BYPASS INLET WATER NODE,CHILLED WATER LOOP CHILLER BYPASS OUTLET WATER NODE,Pipe Nodes
 Component Set,8,BRANCH,CHILLED WATER LOOP SUPPLY OUTLET BRANCH,PIPE:ADIABATIC,CHILLED WATER LOOP SUPPLY OUTLET,CHILLED WATER LOOP SUPPLY OUTLET INLET WATER NODE,CHILLED WATER LOOP SUPPLY OUTLET NODE,Pipe Nodes
 Component Set,9,BRANCH,CHILLED WATER LOOP DEMAND INLET BRANCH,PIPE:ADIABATIC,CHILLED WATER LOOP DEMAND INLET,CHILLED WATER LOOP DEMAND INLET NODE,CHILLED WATER LOOP DEMAND INLET OUTLET WATER NODE,Pipe Nodes
 Component Set,10,BRANCH,CHILLED WATER LOOP DEMAND BRANCH 1,PIPE:ADIABATIC,CHILLED WATER LOOP COIL BYPASS,CHILLED WATER LOOP COIL BYPASS INLET WATER NODE,CHILLED WATER LOOP COIL BYPASS OUTLET WATER NODE,Pipe Nodes
 Component Set,11,BRANCH,CHILLED WATER LOOP DEMAND BRANCH 2,COIL:COOLING:WATER,3 ZONE VAV CLG COIL,3 ZONE VAV CLG COIL INLET WATER NODE,3 ZONE VAV CLG COIL OUTLET WATER NODE,Water Nodes
 Component Set,12,BRANCH,CHILLED WATER LOOP DEMAND BYPASS BRANCH,PIPE:ADIABATIC,CHILLED WATER LOOP DEMAND BYPASS PIPE,CHILLED WATER LOOP DEMAND BYPASS PIPE INLET NODE,CHILLED WATER LOOP DEMAND BYPASS PIPE OUTLET NODE,Pipe Nodes
 Component Set,13,BRANCH,CHILLED WATER LOOP DEMAND OUTLET BRANCH,PIPE:ADIABATIC,CHILLED WATER LOOP DEMAND OUTLET,CHILLED WATER LOOP DEMAND OUTLET INLET WATER NODE,CHILLED WATER LOOP DEMAND OUTLET NODE,Pipe Nodes
 Component Set,14,BRANCH,HOT WATER LOOP SUPPLY INLET BRANCH,PUMP:VARIABLESPEED,HOT WATER LOOP PUMP,HOT WATER LOOP SUPPLY INLET NODE,HOT WATER LOOP PUMP OUTLET WATER NODE,Water Nodes
 Component Set,15,BRANCH,HOT WATER LOOP SUPPLY BRANCH 1,BOILER:HOTWATER,BOILER 89KBTU/HR 0.94 COMBUSTION EFF,BOILER INLET WATER NODE,BOILER OUTLET WATER NODE,Hot Water Nodes
 Component Set,16,BRANCH,HOT WATER LOOP SUPPLY BRANCH 2,PIPE:ADIABATIC,HOT WATER LOOP SUPPLY EQUIPMENT BYPASS,HOT WATER LOOP SUPPLY EQUIPMENT BYPASS INLET WATER NODE,HOT WATER LOOP SUPPLY EQUIPMENT BYPASS OUTLET WATER NODE,Pipe Nodes
 Component Set,17,BRANCH,HOT WATER LOOP SUPPLY OUTLET BRANCH,PIPE:ADIABATIC,HOT WATER LOOP SUPPLY OUTLET,HOT WATER LOOP SUPPLY OUTLET INLET WATER NODE,HOT WATER LOOP SUPPLY OUTLET NODE,Pipe Nodes
 Component Set,18,BRANCH,HOT WATER LOOP DEMAND INLET BRANCH,PIPE:ADIABATIC,HOT WATER LOOP DEMAND INLET,HOT WATER LOOP DEMAND INLET NODE,HOT WATER LOOP DEMAND INLET OUTLET WATER NODE,Pipe Nodes
 Component Set,19,BRANCH,HOT WATER LOOP DEMAND BRANCH 1,PIPE:ADIABATIC,HOT WATER LOOP COIL BYPASS,HOT WATER LOOP COIL BYPASS INLET WATER NODE,HOT WATER LOOP COIL BYPASS OUTLET WATER NODE,Pipe Nodes
 Component Set,20,BRANCH,HOT WATER LOOP DEMAND BRANCH 2,COIL:HEATING:WATER,3 ZONE VAV MAIN HTG COIL,3 ZONE VAV MAIN HTG COIL INLET WATER NODE,3 ZONE VAV MAIN HTG COIL OUTLET WATER NODE,Water Nodes
 Component Set,21,BRANCH,HOT WATER LOOP DEMAND BRANCH 3,COIL:HEATING:WATER,TZ_KITCHEN REHEAT COIL,TZ_KITCHEN REHEAT COIL INLET WATER NODE,TZ_KITCHEN REHEAT COIL OUTLET WATER NODE,Water Nodes
 Component Set,22,BRANCH,HOT WATER LOOP DEMAND BRANCH 4,COIL:HEATING:WATER,TZ_DINING REHEAT COIL,TZ_DINING REHEAT COIL INLET WATER NODE,TZ_DINING REHEAT COIL OUTLET WATER NODE,Water Nodes
 Component Set,23,BRANCH,HOT WATER LOOP DEMAND BRANCH 5,COIL:HEATING:WATER,TZ_LOBBY REHEAT COIL,TZ_LOBBY REHEAT COIL INLET WATER NODE,TZ_LOBBY REHEAT COIL OUTLET WATER NODE,Water Nodes
 Component Set,24,BRANCH,HOT WATER LOOP DEMAND BYPASS BRANCH,PIPE:ADIABATIC,HOT WATER LOOP DEMAND BYPASS PIPE,HOT WATER LOOP DEMAND BYPASS PIPE INLET NODE,HOT WATER LOOP DEMAND BYPASS PIPE OUTLET NODE,Pipe Nodes
 Component Set,25,BRANCH,HOT WATER LOOP DEMAND OUTLET BRANCH,PIPE:ADIABATIC,HOT WATER LOOP DEMAND OUTLET,HOT WATER LOOP DEMAND OUTLET INLET WATER NODE,HOT WATER LOOP DEMAND OUTLET NODE,Pipe Nodes
 Component Set,26,ZONEHVAC:AIRDISTRIBUTIONUNIT,ADU TZ_DINING VAV TERMINAL,AIRTERMINAL:SINGLEDUCT:VAV:REHEAT,TZ_DINING VAV TERMINAL,TZ_DINING VAV TERMINAL INLET AIR NODE,TZ_DINING VAV TERMINAL OUTLET AIR NODE,Air Nodes
 Component Set,27,ZONEHVAC:AIRDISTRIBUTIONUNIT,ADU TZ_KITCHEN VAV TERMINAL,AIRTERMINAL:SINGLEDUCT:VAV:REHEAT,TZ_KITCHEN VAV TERMINAL,TZ_KITCHEN VAV TERMINAL INLET AIR NODE,TZ_KITCHEN VAV TERMINAL OUTLET AIR NODE,Air Nodes
 Component Set,28,ZONEHVAC:AIRDISTRIBUTIONUNIT,ADU TZ_LOBBY VAV TERMINAL,AIRTERMINAL:SINGLEDUCT:VAV:REHEAT,TZ_LOBBY VAV TERMINAL,TZ_LOBBY VAV TERMINAL INLET AIR NODE,TZ_LOBBY VAV TERMINAL OUTLET AIR NODE,Air Nodes
 Component Set,29,AIRTERMINAL:SINGLEDUCT:VAV:REHEAT,TZ_DINING VAV TERMINAL,COIL:HEATING:WATER,TZ_DINING REHEAT COIL,TZ_DINING VAV TERMINAL DAMPER OUTLET,TZ_DINING VAV TERMINAL OUTLET AIR NODE,Air Nodes
 Component Set,30,AIRTERMINAL:SINGLEDUCT:VAV:REHEAT,TZ_KITCHEN VAV TERMINAL,COIL:HEATING:WATER,TZ_KITCHEN REHEAT COIL,TZ_KITCHEN VAV TERMINAL DAMPER OUTLET,TZ_KITCHEN VAV TERMINAL OUTLET AIR NODE,Air Nodes
 Component Set,31,AIRTERMINAL:SINGLEDUCT:VAV:REHEAT,TZ_LOBBY VAV TERMINAL,COIL:HEATING:WATER,TZ_LOBBY REHEAT COIL,TZ_LOBBY VAV TERMINAL DAMPER OUTLET,TZ_LOBBY VAV TERMINAL OUTLET AIR NODE,Air Nodes
 Component Set,32,AIRLOOPHVAC:OUTDOORAIRSYSTEM,3 ZONE VAV OA SYSTEM,HEATEXCHANGER:AIRTOAIR:SENSIBLEANDLATENT,3 ZONE VAV ERV,3 ZONE VAV OUTDOOR AIR NODE,NODE 2,Process Air Nodes
 Component Set,33,AIRLOOPHVAC:OUTDOORAIRSYSTEM,3 ZONE VAV OA SYSTEM,OUTDOORAIR:MIXER,3 ZONE VAV OA SYSTEM OUTDOOR AIR MIXER,NODE 2,3 ZONE VAV MIXED AIR NODE,Air Nodes
! ===============================================================
! <# Plant Loops>,<Number of Plant Loops>
 #Plant Loops,2
! <Plant Loop>,<Plant Loop Name>,<Loop Type>,<Inlet Node Name>,<Outlet Node Name>,<Branch List>,<Connector List>
! <Plant Loop Connector>,<Connector Type>,<Connector Name>,<Loop Name>,<Loop Type>,<Number of Inlets/Outlets>
! <Plant Loop Connector Branches>,<Connector Node Count>,<Connector Type>,<Connector Name>,<Inlet Branch>,<Outlet Branch>,<Loop Name>,<Loop Type>
! <Plant Loop Connector Nodes>,<Connector Node Count>,<Connector Type>,<Connector Name>,<Inlet Node>,<Outlet Node>,<Loop Name>,<Loop Type>
! <Plant Loop Supply Connection>,<Plant Loop Name>,<Supply Side Outlet Node Name>,<Demand Side Inlet Node Name>
! <Plant Loop Return Connection>,<Plant Loop Name>,<Demand Side Outlet Node Name>,<Supply Side Inlet Node Name>
 Plant Loop,CHILLED WATER LOOP,Demand,CHILLED WATER LOOP DEMAND INLET NODE,CHILLED WATER LOOP DEMAND OUTLET NODE,CHILLED WATER LOOP DEMAND BRANCHES,CHILLED WATER LOOP DEMAND CONNECTOR LIST
   Plant Loop Connector,Splitter,CHILLED WATER LOOP DEMAND SPLITTER,CHILLED WATER LOOP,Demand,3
     Plant Loop Connector Branches,1,Splitter,CHILLED WATER LOOP DEMAND SPLITTER,CHILLED WATER LOOP DEMAND INLET BRANCH,CHILLED WATER LOOP DEMAND BRANCH 1,CHILLED WATER LOOP,Demand
     Plant Loop Connector Nodes,   1,Splitter,CHILLED WATER LOOP DEMAND SPLITTER,CHILLED WATER LOOP DEMAND INLET OUTLET WATER NODE,CHILLED WATER LOOP COIL BYPASS INLET WATER NODE,CHILLED WATER LOOP,Demand
     Plant Loop Connector Branches,2,Splitter,CHILLED WATER LOOP DEMAND SPLITTER,CHILLED WATER LOOP DEMAND INLET BRANCH,CHILLED WATER LOOP DEMAND BRANCH 2,CHILLED WATER LOOP,Demand
     Plant Loop Connector Nodes,   2,Splitter,CHILLED WATER LOOP DEMAND SPLITTER,CHILLED WATER LOOP DEMAND INLET OUTLET WATER NODE,3 ZONE VAV CLG COIL INLET WATER NODE,CHILLED WATER LOOP,Demand
     Plant Loop Connector Branches,3,Splitter,CHILLED WATER LOOP DEMAND SPLITTER,CHILLED WATER LOOP DEMAND INLET BRANCH,CHILLED WATER LOOP DEMAND BYPASS BRANCH,CHILLED WATER LOOP,Demand
     Plant Loop Connector Nodes,   3,Splitter,CHILLED WATER LOOP DEMAND SPLITTER,CHILLED WATER LOOP DEMAND INLET OUTLET WATER NODE,CHILLED WATER LOOP DEMAND BYPASS PIPE INLET NODE,CHILLED WATER LOOP,Demand
   Plant Loop Connector,Mixer,CHILLED WATER LOOP DEMAND MIXER,CHILLED WATER LOOP,Demand,3
     Plant Loop Connector Branches,1,Mixer,CHILLED WATER LOOP DEMAND MIXER,CHILLED WATER LOOP DEMAND BRANCH 1,CHILLED WATER LOOP DEMAND OUTLET BRANCH,CHILLED WATER LOOP,Demand
     Plant Loop Connector Nodes,   1,Mixer,CHILLED WATER LOOP DEMAND MIXER,CHILLED WATER LOOP COIL BYPASS OUTLET WATER NODE,CHILLED WATER LOOP DEMAND OUTLET INLET WATER NODE,CHILLED WATER LOOP,Demand
     Plant Loop Connector Branches,2,Mixer,CHILLED WATER LOOP DEMAND MIXER,CHILLED WATER LOOP DEMAND BRANCH 2,CHILLED WATER LOOP DEMAND OUTLET BRANCH,CHILLED WATER LOOP,Demand
     Plant Loop Connector Nodes,   2,Mixer,CHILLED WATER LOOP DEMAND MIXER,3 ZONE VAV CLG COIL OUTLET WATER NODE,CHILLED WATER LOOP DEMAND OUTLET INLET WATER NODE,CHILLED WATER LOOP,Demand
     Plant Loop Connector Branches,3,Mixer,CHILLED WATER LOOP DEMAND MIXER,CHILLED WATER LOOP DEMAND BYPASS BRANCH,CHILLED WATER LOOP DEMAND OUTLET BRANCH,CHILLED WATER LOOP,Demand
     Plant Loop Connector Nodes,   3,Mixer,CHILLED WATER LOOP DEMAND MIXER,CHILLED WATER LOOP DEMAND BYPASS PIPE OUTLET NODE,CHILLED WATER LOOP DEMAND OUTLET INLET WATER NODE,CHILLED WATER LOOP,Demand
 Plant Loop,CHILLED WATER LOOP,Supply,CHILLED WATER LOOP SUPPLY INLET NODE,CHILLED WATER LOOP SUPPLY OUTLET NODE,CHILLED WATER LOOP SUPPLY BRANCHES,CHILLED WATER LOOP SUPPLY CONNECTOR LIST
   Plant Loop Connector,Splitter,CHILLED WATER LOOP SUPPLY SPLITTER,CHILLED WATER LOOP,Supply,2
     Plant Loop Connector Branches,1,Splitter,CHILLED WATER LOOP SUPPLY SPLITTER,CHILLED WATER LOOP SUPPLY INLET BRANCH,CHILLED WATER LOOP SUPPLY BRANCH 1,CHILLED WATER LOOP,Supply
     Plant Loop Connector Nodes,   1,Splitter,CHILLED WATER LOOP SUPPLY SPLITTER,CHILLED WATER LOOP PUMP OUTLET WATER NODE,NREL ZNE READY 2017    CHILLER 0 SUPPLY INLET WATER NODE,CHILLED WATER LOOP,Supply
     Plant Loop Connector Branches,2,Splitter,CHILLED WATER LOOP SUPPLY SPLITTER,CHILLED WATER LOOP SUPPLY INLET BRANCH,CHILLED WATER LOOP SUPPLY BRANCH 2,CHILLED WATER LOOP,Supply
     Plant Loop Connector Nodes,   2,Splitter,CHILLED WATER LOOP SUPPLY SPLITTER,CHILLED WATER LOOP PUMP OUTLET WATER NODE,CHILLED WATER LOOP CHILLER BYPASS INLET WATER NODE,CHILLED WATER LOOP,Supply
   Plant Loop Connector,Mixer,CHILLED WATER LOOP SUPPLY MIXER,CHILLED WATER LOOP,Supply,2
     Plant Loop Connector Branches,1,Mixer,CHILLED WATER LOOP SUPPLY MIXER,CHILLED WATER LOOP SUPPLY BRANCH 1,CHILLED WATER LOOP SUPPLY OUTLET BRANCH,CHILLED WATER LOOP,Supply
     Plant Loop Connector Nodes,   1,Mixer,CHILLED WATER LOOP SUPPLY MIXER,NREL ZNE READY 2017    CHILLER 0 SUPPLY OUTLET WATER NODE,CHILLED WATER LOOP SUPPLY OUTLET INLET WATER NODE,CHILLED WATER LOOP,Supply
     Plant Loop Connector Branches,2,Mixer,CHILLED WATER LOOP SUPPLY MIXER,CHILLED WATER LOOP SUPPLY BRANCH 2,CHILLED WATER LOOP SUPPLY OUTLET BRANCH,CHILLED WATER LOOP,Supply
     Plant Loop Connector Nodes,   2,Mixer,CHILLED WATER LOOP SUPPLY MIXER,CHILLED WATER LOOP CHILLER BYPASS OUTLET WATER NODE,CHILLED WATER LOOP SUPPLY OUTLET INLET WATER NODE,CHILLED WATER LOOP,Supply
 Plant Loop Supply Connection,CHILLED WATER LOOP,CHILLED WATER LOOP SUPPLY OUTLET NODE,CHILLED WATER LOOP DEMAND INLET NODE
 Plant Loop Return Connection,CHILLED WATER LOOP,CHILLED WATER LOOP DEMAND OUTLET NODE,CHILLED WATER LOOP SUPPLY INLET NODE
 Plant Loop,HOT WATER LOOP,Demand,HOT WATER LOOP DEMAND INLET NODE,HOT WATER LOOP DEMAND OUTLET NODE,HOT WATER LOOP DEMAND BRANCHES,HOT WATER LOOP DEMAND CONNECTOR LIST
   Plant Loop Connector,Splitter,HOT WATER LOOP DEMAND SPLITTER,HOT WATER LOOP,Demand,6
     Plant Loop Connector Branches,1,Splitter,HOT WATER LOOP DEMAND SPLITTER,HOT WATER LOOP DEMAND INLET BRANCH,HOT WATER LOOP DEMAND BRANCH 1,HOT WATER LOOP,Demand
     Plant Loop Connector Nodes,   1,Splitter,HOT WATER LOOP DEMAND SPLITTER,HOT WATER LOOP DEMAND INLET OUTLET WATER NODE,HOT WATER LOOP COIL BYPASS INLET WATER NODE,HOT WATER LOOP,Demand
     Plant Loop Connector Branches,2,Splitter,HOT WATER LOOP DEMAND SPLITTER,HOT WATER LOOP DEMAND INLET BRANCH,HOT WATER LOOP DEMAND BRANCH 2,HOT WATER LOOP,Demand
     Plant Loop Connector Nodes,   2,Splitter,HOT WATER LOOP DEMAND SPLITTER,HOT WATER LOOP DEMAND INLET OUTLET WATER NODE,3 ZONE VAV MAIN HTG COIL INLET WATER NODE,HOT WATER LOOP,Demand
     Plant Loop Connector Branches,3,Splitter,HOT WATER LOOP DEMAND SPLITTER,HOT WATER LOOP DEMAND INLET BRANCH,HOT WATER LOOP DEMAND BRANCH 3,HOT WATER LOOP,Demand
     Plant Loop Connector Nodes,   3,Splitter,HOT WATER LOOP DEMAND SPLITTER,HOT WATER LOOP DEMAND INLET OUTLET WATER NODE,TZ_KITCHEN REHEAT COIL INLET WATER NODE,HOT WATER LOOP,Demand
     Plant Loop Connector Branches,4,Splitter,HOT WATER LOOP DEMAND SPLITTER,HOT WATER LOOP DEMAND INLET BRANCH,HOT WATER LOOP DEMAND BRANCH 4,HOT WATER LOOP,Demand
     Plant Loop Connector Nodes,   4,Splitter,HOT WATER LOOP DEMAND SPLITTER,HOT WATER LOOP DEMAND INLET OUTLET WATER NODE,TZ_DINING REHEAT COIL INLET WATER NODE,HOT WATER LOOP,Demand
     Plant Loop Connector Branches,5,Splitter,HOT WATER LOOP DEMAND SPLITTER,HOT WATER LOOP DEMAND INLET BRANCH,HOT WATER LOOP DEMAND BRANCH 5,HOT WATER LOOP,Demand
     Plant Loop Connector Nodes,   5,Splitter,HOT WATER LOOP DEMAND SPLITTER,HOT WATER LOOP DEMAND INLET OUTLET WATER NODE,TZ_LOBBY REHEAT COIL INLET WATER NODE,HOT WATER LOOP,Demand
     Plant Loop Connector Branches,6,Splitter,HOT WATER LOOP DEMAND SPLITTER,HOT WATER LOOP DEMAND INLET BRANCH,HOT WATER LOOP DEMAND BYPASS BRANCH,HOT WATER LOOP,Demand
     Plant Loop Connector Nodes,   6,Splitter,HOT WATER LOOP DEMAND SPLITTER,HOT WATER LOOP DEMAND INLET OUTLET WATER NODE,HOT WATER LOOP DEMAND BYPASS PIPE INLET NODE,HOT WATER LOOP,Demand
   Plant Loop Connector,Mixer,HOT WATER LOOP DEMAND MIXER,HOT WATER LOOP,Demand,6
     Plant Loop Connector Branches,1,Mixer,HOT WATER LOOP DEMAND MIXER,HOT WATER LOOP DEMAND BRANCH 1,HOT WATER LOOP DEMAND OUTLET BRANCH,HOT WATER LOOP,Demand
     Plant Loop Connector Nodes,   1,Mixer,HOT WATER LOOP DEMAND MIXER,HOT WATER LOOP COIL BYPASS OUTLET WATER NODE,HOT WATER LOOP DEMAND OUTLET INLET WATER NODE,HOT WATER LOOP,Demand
     Plant Loop Connector Branches,2,Mixer,HOT WATER LOOP DEMAND MIXER,HOT WATER LOOP DEMAND BRANCH 2,HOT WATER LOOP DEMAND OUTLET BRANCH,HOT WATER LOOP,Demand
     Plant Loop Connector Nodes,   2,Mixer,HOT WATER LOOP DEMAND MIXER,3 ZONE VAV MAIN HTG COIL OUTLET WATER NODE,HOT WATER LOOP DEMAND OUTLET INLET WATER NODE,HOT WATER LOOP,Demand
     Plant Loop Connector Branches,3,Mixer,HOT WATER LOOP DEMAND MIXER,HOT WATER LOOP DEMAND BRANCH 3,HOT WATER LOOP DEMAND OUTLET BRANCH,HOT WATER LOOP,Demand
     Plant Loop Connector Nodes,   3,Mixer,HOT WATER LOOP DEMAND MIXER,TZ_KITCHEN REHEAT COIL OUTLET WATER NODE,HOT WATER LOOP DEMAND OUTLET INLET WATER NODE,HOT WATER LOOP,Demand
     Plant Loop Connector Branches,4,Mixer,HOT WATER LOOP DEMAND MIXER,HOT WATER LOOP DEMAND BRANCH 4,HOT WATER LOOP DEMAND OUTLET BRANCH,HOT WATER LOOP,Demand
     Plant Loop Connector Nodes,   4,Mixer,HOT WATER LOOP DEMAND MIXER,TZ_DINING REHEAT COIL OUTLET WATER NODE,HOT WATER LOOP DEMAND OUTLET INLET WATER NODE,HOT WATER LOOP,Demand
     Plant Loop Connector Branches,5,Mixer,HOT WATER LOOP DEMAND MIXER,HOT WATER LOOP DEMAND BRANCH 5,HOT WATER LOOP DEMAND OUTLET BRANCH,HOT WATER LOOP,Demand
     Plant Loop Connector Nodes,   5,Mixer,HOT WATER LOOP DEMAND MIXER,TZ_LOBBY REHEAT COIL OUTLET WATER NODE,HOT WATER LOOP DEMAND OUTLET INLET WATER NODE,HOT WATER LOOP,Demand
     Plant Loop Connector Branches,6,Mixer,HOT WATER LOOP DEMAND MIXER,HOT WATER LOOP DEMAND BYPASS BRANCH,HOT WATER LOOP DEMAND OUTLET BRANCH,HOT WATER LOOP,Demand
     Plant Loop Connector Nodes,   6,Mixer,HOT WATER LOOP DEMAND MIXER,HOT WATER LOOP DEMAND BYPASS PIPE OUTLET NODE,HOT WATER LOOP DEMAND OUTLET INLET WATER NODE,HOT WATER LOOP,Demand
 Plant Loop,HOT WATER LOOP,Supply,HOT WATER LOOP SUPPLY INLET NODE,HOT WATER LOOP SUPPLY OUTLET NODE,HOT WATER LOOP SUPPLY BRANCHES,HOT WATER LOOP SUPPLY CONNECTOR LIST
   Plant Loop Connector,Splitter,HOT WATER LOOP SUPPLY SPLITTER,HOT WATER LOOP,Supply,2
     Plant Loop Connector Branches,1,Splitter,HOT WATER LOOP SUPPLY SPLITTER,HOT WATER LOOP SUPPLY INLET BRANCH,HOT WATER LOOP SUPPLY BRANCH 1,HOT WATER LOOP,Supply
     Plant Loop Connector Nodes,   1,Splitter,HOT WATER LOOP SUPPLY SPLITTER,HOT WATER LOOP PUMP OUTLET WATER NODE,BOILER INLET WATER NODE,HOT WATER LOOP,Supply
     Plant Loop Connector Branches,2,Splitter,HOT WATER LOOP SUPPLY SPLITTER,HOT WATER LOOP SUPPLY INLET BRANCH,HOT WATER LOOP SUPPLY BRANCH 2,HOT WATER LOOP,Supply
     Plant Loop Connector Nodes,   2,Splitter,HOT WATER LOOP SUPPLY SPLITTER,HOT WATER LOOP PUMP OUTLET WATER NODE,HOT WATER LOOP SUPPLY EQUIPMENT BYPASS INLET WATER NODE,HOT WATER LOOP,Supply
   Plant Loop Connector,Mixer,HOT WATER LOOP SUPPLY MIXER,HOT WATER LOOP,Supply,2
     Plant Loop Connector Branches,1,Mixer,HOT WATER LOOP SUPPLY MIXER,HOT WATER LOOP SUPPLY BRANCH 1,HOT WATER LOOP SUPPLY OUTLET BRANCH,HOT WATER LOOP,Supply
     Plant Loop Connector Nodes,   1,Mixer,HOT WATER LOOP SUPPLY MIXER,BOILER OUTLET WATER NODE,HOT WATER LOOP SUPPLY OUTLET INLET WATER NODE,HOT WATER LOOP,Supply
     Plant Loop Connector Branches,2,Mixer,HOT WATER LOOP SUPPLY MIXER,HOT WATER LOOP SUPPLY BRANCH 2,HOT WATER LOOP SUPPLY OUTLET BRANCH,HOT WATER LOOP,Supply
     Plant Loop Connector Nodes,   2,Mixer,HOT WATER LOOP SUPPLY MIXER,HOT WATER LOOP SUPPLY EQUIPMENT BYPASS OUTLET WATER NODE,HOT WATER LOOP SUPPLY OUTLET INLET WATER NODE,HOT WATER LOOP,Supply
 Plant Loop Supply Connection,HOT WATER LOOP,HOT WATER LOOP SUPPLY OUTLET NODE,HOT WATER LOOP DEMAND INLET NODE
 Plant Loop Return Connection,HOT WATER LOOP,HOT WATER LOOP DEMAND OUTLET NODE,HOT WATER LOOP SUPPLY INLET NODE
! ===============================================================
! <# Condenser Loops>,<Number of Condenser Loops>
 #Condenser Loops,0
! <Condenser Loop>,<Condenser Loop Name>,<Loop Type>,<Inlet Node Name>,<Outlet Node Name>,<Branch List>,<Connector List>
! <Condenser Loop Connector>,<Connector Type>,<Connector Name>,<Loop Name>,<Loop Type>,<Number of Inlets/Outlets>
! <Condenser Loop Connector Branches>,<Connector Node Count>,<Connector Type>,<Connector Name>,<Inlet Branch>,<Outlet Branch>,<Loop Name>,<Loop Type>
! <Condenser Loop Connector Nodes>,<Connector Node Count>,<Connector Type>,<Connector Name>,<Inlet Node>,<Outlet Node>,<Loop Name>,<Loop Type>
! <Condenser Loop Supply Connection>,<Condenser Loop Name>,<Supply Side Outlet Node Name>,<Demand Side Inlet Node Name>
! <Condenser Loop Return Connection>,<Condenser Loop Name>,<Demand Side Outlet Node Name>,<Supply Side Inlet Node Name>
! ===============================================================
! <# Controlled Zones>,<Number of Controlled Zones>
 #Controlled Zones,3
! <Controlled Zone>,<Controlled Zone Name>,<Equip List Name>,<Control List Name>,<Zone Node Name>,<# Inlet Nodes>,<# Exhaust Nodes>,<# Return Nodes>
! <Controlled Zone Inlet>,<Inlet Node Count>,<Controlled Zone Name>,<Supply Air Inlet Node Name>,<SD Sys:Cooling/Heating [DD:Cooling] Inlet Node Name>,<DD Sys:Heating Inlet Node Name>
! <Controlled Zone Exhaust>,<Exhaust Node Count>,<Controlled Zone Name>,<Exhaust Air Node Name>
 Controlled Zone,TZ_DINING,TZ_DINING EQUIPMENT LIST,,TZ_DINING ZONE AIR NODE,1,0,1
   Controlled Zone Inlet,1,TZ_DINING,TZ_DINING VAV TERMINAL OUTLET AIR NODE,TZ_DINING VAV TERMINAL INLET AIR NODE,N/A
   Controlled Zone Return,1,TZ_DINING,TZ_DINING RETURN AIR NODE
 Controlled Zone,TZ_KITCHEN,TZ_KITCHEN EQUIPMENT LIST,,TZ_KITCHEN ZONE AIR NODE,1,0,1
   Controlled Zone Inlet,1,TZ_KITCHEN,TZ_KITCHEN VAV TERMINAL OUTLET AIR NODE,TZ_KITCHEN VAV TERMINAL INLET AIR NODE,N/A
   Controlled Zone Return,1,TZ_KITCHEN,TZ_KITCHEN RETURN AIR NODE
 Controlled Zone,TZ_LOBBY,TZ_LOBBY EQUIPMENT LIST,,TZ_LOBBY ZONE AIR NODE,1,0,1
   Controlled Zone Inlet,1,TZ_LOBBY,TZ_LOBBY VAV TERMINAL OUTLET AIR NODE,TZ_LOBBY VAV TERMINAL INLET AIR NODE,N/A
   Controlled Zone Return,1,TZ_LOBBY,TZ_LOBBY RETURN AIR NODE
! ===============================================================
! <#Zone Equipment Lists>,<Number of Zone Equipment Lists>
 #Zone Equipment Lists,3
! <Zone Equipment List>,<Zone Equipment List Count>,<Zone Equipment List Name>,<Zone Name>,<Number of Components>
! <Zone Equipment Component>,<Component Count>,<Component Type>,<Component Name>,<Zone Name>,<Heating Priority>,<Cooling Priority>
 Zone Equipment List,1,TZ_DINING EQUIPMENT LIST,TZ_DINING,1
   Zone Equipment Component,1,ZONEHVAC:AIRDISTRIBUTIONUNIT,ADU TZ_DINING VAV TERMINAL,TZ_DINING,1,1
 Zone Equipment List,2,TZ_KITCHEN EQUIPMENT LIST,TZ_KITCHEN,1
   Zone Equipment Component,1,ZONEHVAC:AIRDISTRIBUTIONUNIT,ADU TZ_KITCHEN VAV TERMINAL,TZ_KITCHEN,1,1
 Zone Equipment List,3,TZ_LOBBY EQUIPMENT LIST,TZ_LOBBY,1
   Zone Equipment Component,1,ZONEHVAC:AIRDISTRIBUTIONUNIT,ADU TZ_LOBBY VAV TERMINAL,TZ_LOBBY,1,1
! ===============================================================
! <#AirLoopHVACs>,<Number of AirLoopHVACs>
 #AirLoopHVACs,1
! <AirLoopHVAC>,<Air Loop Name>,<# Return Nodes>,<# Supply Nodes>,<# Zones Cooled>,<# Zones Heated>,<Outdoor Air Used>
! <AirLoop Return Connections>,<Connection Count>,<AirLoopHVAC Name>,<Zn Eqp Return Node #>,<Zn Eqp Return Node Name>,<AirLoop Return Node #>,<Air Loop Return Node Name>
! <AirLoop Supply Connections>,<Connection Count>,<AirLoopHVAC Name>,<Zn Eqp Supply Node #>,<Zn Eqp Supply Node Name>,<AirLoop Supply Node #>,<Air Loop Supply Node Name>
! <Cooled Zone Info>,<Cooled Zone Count>,<Cooled Zone Name>,<Cooled Zone Inlet Node #>,<Cooled Zone Inlet Node Name>,<AirLoopHVAC Name>
! <Heated Zone Info>,<Heated Zone Count>,<Heated Zone Name>,<Heated Zone Inlet Node #>,<Heated Zone Inlet Node Name>,<AirLoopHVAC Name>
! <Outdoor Air Connections>,<OA Inlet Node #>,<OA Return Air Inlet Node Name>,<OA Outlet Node #>,<OA Mixed Air Outlet Node Name>,<AirLoopHVAC Name>
! <AirLoopHVAC Connector>,<Connector Type>,<Connector Name>,<Loop Name>,<Loop Type>,<Number of Inlets/Outlets>
! <AirLoopHVAC Connector Branches>,<Connector Node Count>,<Connector Type>,<Connector Name>,<Inlet Branch>,<Outlet Branch>,<Loop Name>,<Loop Type>
! <AirLoopHVAC Connector Nodes>,<Connector Node Count>,<Connector Type>,<Connector Name>,<Inlet Node>,<Outlet Node>,<Loop Name>,<Loop Type>
 AirLoopHVAC,3 ZONE VAV,1,1,3,0,Yes
   AirLoop Return Connections,1,3 ZONE VAV,58,3 ZONE VAV DEMAND OUTLET NODE,9,3 ZONE VAV SUPPLY INLET NODE
   AirLoop Supply Connections,1,3 ZONE VAV,8,3 ZONE VAV DEMAND INLET NODE,7,3 ZONE VAV SUPPLY OUTLET NODE
   Cooled Zone Info,1,TZ_KITCHEN,3,TZ_KITCHEN VAV TERMINAL OUTLET AIR NODE,3 ZONE VAV
   Cooled Zone Info,2,TZ_DINING,1,TZ_DINING VAV TERMINAL OUTLET AIR NODE,3 ZONE VAV
   Cooled Zone Info,3,TZ_LOBBY,5,TZ_LOBBY VAV TERMINAL OUTLET AIR NODE,3 ZONE VAV
   Outdoor Air Connections,9,3 ZONE VAV SUPPLY INLET NODE,10,3 ZONE VAV MIXED AIR NODE,3 ZONE VAV
! ===============================================================
! <#Parent Node Connections>,<Number of Parent Node Connections>
 #Parent Node Connections,69
! <Parent Node Connection>,<Node Name>,<Node ObjectType>,<Node ObjectName>,<Node ConnectionType>,<Node FluidStream>
 Parent Node Connection,3 ZONE VAV SUPPLY INLET NODE,BRANCH,3 ZONE VAV MAIN BRANCH,Inlet,1
 Parent Node Connection,3 ZONE VAV MIXED AIR NODE,BRANCH,3 ZONE VAV MAIN BRANCH,Internal,1
 Parent Node Connection,3 ZONE VAV CLG COIL OUTLET AIR NODE,BRANCH,3 ZONE VAV MAIN BRANCH,Internal,1
 Parent Node Connection,3 ZONE VAV MAIN HTG COIL OUTLET AIR NODE,BRANCH,3 ZONE VAV MAIN BRANCH,Internal,1
 Parent Node Connection,3 ZONE VAV SUPPLY OUTLET NODE,BRANCH,3 ZONE VAV MAIN BRANCH,Outlet,1
 Parent Node Connection,CHILLED WATER LOOP SUPPLY INLET NODE,BRANCH,CHILLED WATER LOOP SUPPLY INLET BRANCH,Inlet,1
 Parent Node Connection,CHILLED WATER LOOP PUMP OUTLET WATER NODE,BRANCH,CHILLED WATER LOOP SUPPLY INLET BRANCH,Outlet,1
 Parent Node Connection,NREL ZNE READY 2017    CHILLER 0 SUPPLY INLET WATER NODE,BRANCH,CHILLED WATER LOOP SUPPLY BRANCH 1,Inlet,1
 Parent Node Connection,NREL ZNE READY 2017    CHILLER 0 SUPPLY OUTLET WATER NODE,BRANCH,CHILLED WATER LOOP SUPPLY BRANCH 1,Outlet,1
 Parent Node Connection,CHILLED WATER LOOP CHILLER BYPASS INLET WATER NODE,BRANCH,CHILLED WATER LOOP SUPPLY BRANCH 2,Inlet,1
 Parent Node Connection,CHILLED WATER LOOP CHILLER BYPASS OUTLET WATER NODE,BRANCH,CHILLED WATER LOOP SUPPLY BRANCH 2,Outlet,1
 Parent Node Connection,CHILLED WATER LOOP SUPPLY OUTLET INLET WATER NODE,BRANCH,CHILLED WATER LOOP SUPPLY OUTLET BRANCH,Inlet,1
 Parent Node Connection,CHILLED WATER LOOP SUPPLY OUTLET NODE,BRANCH,CHILLED WATER LOOP SUPPLY OUTLET BRANCH,Outlet,1
 Parent Node Connection,CHILLED WATER LOOP DEMAND INLET NODE,BRANCH,CHILLED WATER LOOP DEMAND INLET BRANCH,Inlet,1
 Parent Node Connection,CHILLED WATER LOOP DEMAND INLET OUTLET WATER NODE,BRANCH,CHILLED WATER LOOP DEMAND INLET BRANCH,Outlet,1
 Parent Node Connection,CHILLED WATER LOOP COIL BYPASS INLET WATER NODE,BRANCH,CHILLED WATER LOOP DEMAND BRANCH 1,Inlet,1
 Parent Node Connection,CHILLED WATER LOOP COIL BYPASS OUTLET WATER NODE,BRANCH,CHILLED WATER LOOP DEMAND BRANCH 1,Outlet,1
 Parent Node Connection,3 ZONE VAV CLG COIL INLET WATER NODE,BRANCH,CHILLED WATER LOOP DEMAND BRANCH 2,Inlet,1
 Parent Node Connection,3 ZONE VAV CLG COIL OUTLET WATER NODE,BRANCH,CHILLED WATER LOOP DEMAND BRANCH 2,Outlet,1
 Parent Node Connection,CHILLED WATER LOOP DEMAND BYPASS PIPE INLET NODE,BRANCH,CHILLED WATER LOOP DEMAND BYPASS BRANCH,Inlet,1
 Parent Node Connection,CHILLED WATER LOOP DEMAND BYPASS PIPE OUTLET NODE,BRANCH,CHILLED WATER LOOP DEMAND BYPASS BRANCH,Outlet,1
 Parent Node Connection,CHILLED WATER LOOP DEMAND OUTLET INLET WATER NODE,BRANCH,CHILLED WATER LOOP DEMAND OUTLET BRANCH,Inlet,1
 Parent Node Connection,CHILLED WATER LOOP DEMAND OUTLET NODE,BRANCH,CHILLED WATER LOOP DEMAND OUTLET BRANCH,Outlet,1
 Parent Node Connection,HOT WATER LOOP SUPPLY INLET NODE,BRANCH,HOT WATER LOOP SUPPLY INLET BRANCH,Inlet,1
 Parent Node Connection,HOT WATER LOOP PUMP OUTLET WATER NODE,BRANCH,HOT WATER LOOP SUPPLY INLET BRANCH,Outlet,1
 Parent Node Connection,BOILER INLET WATER NODE,BRANCH,HOT WATER LOOP SUPPLY BRANCH 1,Inlet,1
 Parent Node Connection,BOILER OUTLET WATER NODE,BRANCH,HOT WATER LOOP SUPPLY BRANCH 1,Outlet,1
 Parent Node Connection,HOT WATER LOOP SUPPLY EQUIPMENT BYPASS INLET WATER NODE,BRANCH,HOT WATER LOOP SUPPLY BRANCH 2,Inlet,1
 Parent Node Connection,HOT WATER LOOP SUPPLY EQUIPMENT BYPASS OUTLET WATER NODE,BRANCH,HOT WATER LOOP SUPPLY BRANCH 2,Outlet,1
 Parent Node Connection,HOT WATER LOOP SUPPLY OUTLET INLET WATER NODE,BRANCH,HOT WATER LOOP SUPPLY OUTLET BRANCH,Inlet,1
 Parent Node Connection,HOT WATER LOOP SUPPLY OUTLET NODE,BRANCH,HOT WATER LOOP SUPPLY OUTLET BRANCH,Outlet,1
 Parent Node Connection,HOT WATER LOOP DEMAND INLET NODE,BRANCH,HOT WATER LOOP DEMAND INLET BRANCH,Inlet,1
 Parent Node Connection,HOT WATER LOOP DEMAND INLET OUTLET WATER NODE,BRANCH,HOT WATER LOOP DEMAND INLET BRANCH,Outlet,1
 Parent Node Connection,HOT WATER LOOP COIL BYPASS INLET WATER NODE,BRANCH,HOT WATER LOOP DEMAND BRANCH 1,Inlet,1
 Parent Node Connection,HOT WATER LOOP COIL BYPASS OUTLET WATER NODE,BRANCH,HOT WATER LOOP DEMAND BRANCH 1,Outlet,1
 Parent Node Connection,3 ZONE VAV MAIN HTG COIL INLET WATER NODE,BRANCH,HOT WATER LOOP DEMAND BRANCH 2,Inlet,1
 Parent Node Connection,3 ZONE VAV MAIN HTG COIL OUTLET WATER NODE,BRANCH,HOT WATER LOOP DEMAND BRANCH 2,Outlet,1
 Parent Node Connection,TZ_KITCHEN REHEAT COIL INLET WATER NODE,BRANCH,HOT WATER LOOP DEMAND BRANCH 3,Inlet,1
 Parent Node Connection,TZ_KITCHEN REHEAT COIL OUTLET WATER NODE,BRANCH,HOT WATER LOOP DEMAND BRANCH 3,Outlet,1
 Parent Node Connection,TZ_DINING REHEAT COIL INLET WATER NODE,BRANCH,HOT WATER LOOP DEMAND BRANCH 4,Inlet,1
 Parent Node Connection,TZ_DINING REHEAT COIL OUTLET WATER NODE,BRANCH,HOT WATER LOOP DEMAND BRANCH 4,Outlet,1
 Parent Node Connection,TZ_LOBBY REHEAT COIL INLET WATER NODE,BRANCH,HOT WATER LOOP DEMAND BRANCH 5,Inlet,1
 Parent Node Connection,TZ_LOBBY REHEAT COIL OUTLET WATER NODE,BRANCH,HOT WATER LOOP DEMAND BRANCH 5,Outlet,1
 Parent Node Connection,HOT WATER LOOP DEMAND BYPASS PIPE INLET NODE,BRANCH,HOT WATER LOOP DEMAND BYPASS BRANCH,Inlet,1
 Parent Node Connection,HOT WATER LOOP DEMAND BYPASS PIPE OUTLET NODE,BRANCH,HOT WATER LOOP DEMAND BYPASS BRANCH,Outlet,1
 Parent Node Connection,HOT WATER LOOP DEMAND OUTLET INLET WATER NODE,BRANCH,HOT WATER LOOP DEMAND OUTLET BRANCH,Inlet,1
 Parent Node Connection,HOT WATER LOOP DEMAND OUTLET NODE,BRANCH,HOT WATER LOOP DEMAND OUTLET BRANCH,Outlet,1
 Parent Node Connection,3 ZONE VAV DEMAND INLET NODE,AIRLOOPHVAC:SUPPLYPATH,3 ZONE VAV 3 ZONE VAV DEMAND INLET NODE SUPPLY PATH,Inlet,1
 Parent Node Connection,3 ZONE VAV DEMAND OUTLET NODE,AIRLOOPHVAC:RETURNPATH,3 ZONE VAV RETURN PATH,Outlet,1
 Parent Node Connection,CHILLED WATER LOOP SUPPLY INLET NODE,PLANTLOOP,CHILLED WATER LOOP,Inlet,1
 Parent Node Connection,CHILLED WATER LOOP SUPPLY OUTLET NODE,PLANTLOOP,CHILLED WATER LOOP,Outlet,1
 Parent Node Connection,CHILLED WATER LOOP DEMAND INLET NODE,PLANTLOOP,CHILLED WATER LOOP,Inlet,1
 Parent Node Connection,CHILLED WATER LOOP DEMAND OUTLET NODE,PLANTLOOP,CHILLED WATER LOOP,Outlet,1
 Parent Node Connection,CHILLED WATER LOOP SUPPLY OUTLET NODE,PLANTLOOP,CHILLED WATER LOOP,Sensor,1
 Parent Node Connection,HOT WATER LOOP SUPPLY INLET NODE,PLANTLOOP,HOT WATER LOOP,Inlet,1
 Parent Node Connection,HOT WATER LOOP SUPPLY OUTLET NODE,PLANTLOOP,HOT WATER LOOP,Outlet,1
 Parent Node Connection,HOT WATER LOOP DEMAND INLET NODE,PLANTLOOP,HOT WATER LOOP,Inlet,1
 Parent Node Connection,HOT WATER LOOP DEMAND OUTLET NODE,PLANTLOOP,HOT WATER LOOP,Outlet,1
 Parent Node Connection,HOT WATER LOOP SUPPLY OUTLET NODE,PLANTLOOP,HOT WATER LOOP,Sensor,1
 Parent Node Connection,TZ_DINING VAV TERMINAL OUTLET AIR NODE,ZONEHVAC:AIRDISTRIBUTIONUNIT,ADU TZ_DINING VAV TERMINAL,Outlet,1
 Parent Node Connection,TZ_KITCHEN VAV TERMINAL OUTLET AIR NODE,ZONEHVAC:AIRDISTRIBUTIONUNIT,ADU TZ_KITCHEN VAV TERMINAL,Outlet,1
 Parent Node Connection,TZ_LOBBY VAV TERMINAL OUTLET AIR NODE,ZONEHVAC:AIRDISTRIBUTIONUNIT,ADU TZ_LOBBY VAV TERMINAL,Outlet,1
 Parent Node Connection,TZ_DINING VAV TERMINAL OUTLET AIR NODE,AIRTERMINAL:SINGLEDUCT:VAV:REHEAT,TZ_DINING VAV TERMINAL,Outlet,1
 Parent Node Connection,TZ_KITCHEN VAV TERMINAL OUTLET AIR NODE,AIRTERMINAL:SINGLEDUCT:VAV:REHEAT,TZ_KITCHEN VAV TERMINAL,Outlet,1
 Parent Node Connection,TZ_LOBBY VAV TERMINAL OUTLET AIR NODE,AIRTERMINAL:SINGLEDUCT:VAV:REHEAT,TZ_LOBBY VAV TERMINAL,Outlet,1
 Parent Node Connection,3 ZONE VAV SUPPLY INLET NODE,AIRLOOPHVAC,3 ZONE VAV,Inlet,1
 Parent Node Connection,3 ZONE VAV DEMAND OUTLET NODE,AIRLOOPHVAC,3 ZONE VAV,Outlet,1
 Parent Node Connection,3 ZONE VAV DEMAND INLET NODE,AIRLOOPHVAC,3 ZONE VAV,Inlet,1
 Parent Node Connection,3 ZONE VAV SUPPLY OUTLET NODE,AIRLOOPHVAC,3 ZONE VAV,Outlet,1
! ===============================================================
! <#Non-Parent Node Connections>,<Number of Non-Parent Node Connections>
 #Non-Parent Node Connections,148
! <Non-Parent Node Connection>,<Node Name>,<Node ObjectType>,<Node ObjectName>,<Node ConnectionType>,<Node FluidStream>
 Non-Parent Node Connection,TZ_DINING ZONE AIR NODE,ZONEHVAC:EQUIPMENTCONNECTIONS,TZ_DINING,ZoneNode,1
 Non-Parent Node Connection,TZ_DINING VAV TERMINAL OUTLET AIR NODE,ZONEHVAC:EQUIPMENTCONNECTIONS,TZ_DINING,ZoneInlet,1
 Non-Parent Node Connection,TZ_DINING RETURN AIR NODE,ZONEHVAC:EQUIPMENTCONNECTIONS,TZ_DINING,ZoneReturn,1
 Non-Parent Node Connection,TZ_KITCHEN ZONE AIR NODE,ZONEHVAC:EQUIPMENTCONNECTIONS,TZ_KITCHEN,ZoneNode,1
 Non-Parent Node Connection,TZ_KITCHEN VAV TERMINAL OUTLET AIR NODE,ZONEHVAC:EQUIPMENTCONNECTIONS,TZ_KITCHEN,ZoneInlet,1
 Non-Parent Node Connection,TZ_KITCHEN RETURN AIR NODE,ZONEHVAC:EQUIPMENTCONNECTIONS,TZ_KITCHEN,ZoneReturn,1
 Non-Parent Node Connection,TZ_LOBBY ZONE AIR NODE,ZONEHVAC:EQUIPMENTCONNECTIONS,TZ_LOBBY,ZoneNode,1
 Non-Parent Node Connection,TZ_LOBBY VAV TERMINAL OUTLET AIR NODE,ZONEHVAC:EQUIPMENTCONNECTIONS,TZ_LOBBY,ZoneInlet,1
 Non-Parent Node Connection,TZ_LOBBY RETURN AIR NODE,ZONEHVAC:EQUIPMENTCONNECTIONS,TZ_LOBBY,ZoneReturn,1
 Non-Parent Node Connection,3 ZONE VAV OUTDOOR AIR NODE,OUTDOORAIR:NODELIST,OutdoorAir:NodeList,OutdoorAir,1
 Non-Parent Node Connection,NREL ZNE READY 2017    CHILLER 0 11TONS 1.1KW/TON INLET NODE FOR CONDENSER,OUTDOORAIR:NODELIST,OutdoorAir:NodeList,OutdoorAir,2
 Non-Parent Node Connection,MODEL OUTDOOR AIR NODE,OUTDOORAIR:NODE,OutdoorAir:Node,OutdoorAir,3
 Non-Parent Node Connection,CHILLED WATER LOOP SUPPLY OUTLET NODE,SETPOINTMANAGER:SCHEDULED,CHILLED WATER LOOP SETPOINT MANAGER,Setpoint,1
 Non-Parent Node Connection,HOT WATER LOOP SUPPLY OUTLET NODE,SETPOINTMANAGER:SCHEDULED,HOT WATER LOOP SETPOINT MANAGER,Setpoint,1
 Non-Parent Node Connection,3 ZONE VAV SUPPLY OUTLET NODE,SETPOINTMANAGER:MIXEDAIR,3 ZONE VAV MIXED AIR NODE OS DEFAULT SPM,Sensor,1
 Non-Parent Node Connection,3 ZONE VAV MAIN HTG COIL OUTLET AIR NODE,SETPOINTMANAGER:MIXEDAIR,3 ZONE VAV MIXED AIR NODE OS DEFAULT SPM,Sensor,1
 Non-Parent Node Connection,3 ZONE VAV MIXED AIR NODE,SETPOINTMANAGER:MIXEDAIR,3 ZONE VAV MIXED AIR NODE OS DEFAULT SPM,Setpoint,1
 Non-Parent Node Connection,3 ZONE VAV SUPPLY OUTLET NODE,SETPOINTMANAGER:MIXEDAIR,3 ZONE VAV CLG COIL OUTLET AIR NODE OS DEFAULT SPM,Sensor,1
 Non-Parent Node Connection,3 ZONE VAV MAIN HTG COIL OUTLET AIR NODE,SETPOINTMANAGER:MIXEDAIR,3 ZONE VAV CLG COIL OUTLET AIR NODE OS DEFAULT SPM,Sensor,1
 Non-Parent Node Connection,3 ZONE VAV CLG COIL OUTLET AIR NODE,SETPOINTMANAGER:MIXEDAIR,3 ZONE VAV CLG COIL OUTLET AIR NODE OS DEFAULT SPM,Setpoint,1
 Non-Parent Node Connection,3 ZONE VAV SUPPLY OUTLET NODE,SETPOINTMANAGER:MIXEDAIR,3 ZONE VAV MAIN HTG COIL OUTLET AIR NODE OS DEFAULT SPM,Sensor,1
 Non-Parent Node Connection,3 ZONE VAV MAIN HTG COIL OUTLET AIR NODE,SETPOINTMANAGER:MIXEDAIR,3 ZONE VAV MAIN HTG COIL OUTLET AIR NODE OS DEFAULT SPM,Sensor,1
 Non-Parent Node Connection,3 ZONE VAV MAIN HTG COIL OUTLET AIR NODE,SETPOINTMANAGER:MIXEDAIR,3 ZONE VAV MAIN HTG COIL OUTLET AIR NODE OS DEFAULT SPM,Setpoint,1
 Non-Parent Node Connection,3 ZONE VAV MIXED AIR NODE,SETPOINTMANAGER:OUTDOORAIRPRETREAT,SETPOINT MANAGER OUTDOOR AIR PRETREAT 1,Sensor,1
 Non-Parent Node Connection,3 ZONE VAV OUTDOOR AIR NODE,SETPOINTMANAGER:OUTDOORAIRPRETREAT,SETPOINT MANAGER OUTDOOR AIR PRETREAT 1,Sensor,1
 Non-Parent Node Connection,3 ZONE VAV SUPPLY INLET NODE,SETPOINTMANAGER:OUTDOORAIRPRETREAT,SETPOINT MANAGER OUTDOOR AIR PRETREAT 1,Sensor,1
 Non-Parent Node Connection,NODE 2,SETPOINTMANAGER:OUTDOORAIRPRETREAT,SETPOINT MANAGER OUTDOOR AIR PRETREAT 1,Setpoint,1
 Non-Parent Node Connection,3 ZONE VAV SUPPLY OUTLET NODE,SETPOINTMANAGER:WARMEST,3 ZONE VAV SAT WARMEST RESET,Setpoint,1
 Non-Parent Node Connection,CHILLED WATER LOOP CHILLER BYPASS INLET WATER NODE,PIPE:ADIABATIC,CHILLED WATER LOOP CHILLER BYPASS,Inlet,1
 Non-Parent Node Connection,CHILLED WATER LOOP CHILLER BYPASS OUTLET WATER NODE,PIPE:ADIABATIC,CHILLED WATER LOOP CHILLER BYPASS,Outlet,1
 Non-Parent Node Connection,CHILLED WATER LOOP SUPPLY OUTLET INLET WATER NODE,PIPE:ADIABATIC,CHILLED WATER LOOP SUPPLY OUTLET,Inlet,1
 Non-Parent Node Connection,CHILLED WATER LOOP SUPPLY OUTLET NODE,PIPE:ADIABATIC,CHILLED WATER LOOP SUPPLY OUTLET,Outlet,1
 Non-Parent Node Connection,CHILLED WATER LOOP DEMAND INLET NODE,PIPE:ADIABATIC,CHILLED WATER LOOP DEMAND INLET,Inlet,1
 Non-Parent Node Connection,CHILLED WATER LOOP DEMAND INLET OUTLET WATER NODE,PIPE:ADIABATIC,CHILLED WATER LOOP DEMAND INLET,Outlet,1
 Non-Parent Node Connection,CHILLED WATER LOOP COIL BYPASS INLET WATER NODE,PIPE:ADIABATIC,CHILLED WATER LOOP COIL BYPASS,Inlet,1
 Non-Parent Node Connection,CHILLED WATER LOOP COIL BYPASS OUTLET WATER NODE,PIPE:ADIABATIC,CHILLED WATER LOOP COIL BYPASS,Outlet,1
 Non-Parent Node Connection,CHILLED WATER LOOP DEMAND BYPASS PIPE INLET NODE,PIPE:ADIABATIC,CHILLED WATER LOOP DEMAND BYPASS PIPE,Inlet,1
 Non-Parent Node Connection,CHILLED WATER LOOP DEMAND BYPASS PIPE OUTLET NODE,PIPE:ADIABATIC,CHILLED WATER LOOP DEMAND BYPASS PIPE,Outlet,1
 Non-Parent Node Connection,CHILLED WATER LOOP DEMAND OUTLET INLET WATER NODE,PIPE:ADIABATIC,CHILLED WATER LOOP DEMAND OUTLET,Inlet,1
 Non-Parent Node Connection,CHILLED WATER LOOP DEMAND OUTLET NODE,PIPE:ADIABATIC,CHILLED WATER LOOP DEMAND OUTLET,Outlet,1
 Non-Parent Node Connection,HOT WATER LOOP SUPPLY EQUIPMENT BYPASS INLET WATER NODE,PIPE:ADIABATIC,HOT WATER LOOP SUPPLY EQUIPMENT BYPASS,Inlet,1
 Non-Parent Node Connection,HOT WATER LOOP SUPPLY EQUIPMENT BYPASS OUTLET WATER NODE,PIPE:ADIABATIC,HOT WATER LOOP SUPPLY EQUIPMENT BYPASS,Outlet,1
 Non-Parent Node Connection,HOT WATER LOOP SUPPLY OUTLET INLET WATER NODE,PIPE:ADIABATIC,HOT WATER LOOP SUPPLY OUTLET,Inlet,1
 Non-Parent Node Connection,HOT WATER LOOP SUPPLY OUTLET NODE,PIPE:ADIABATIC,HOT WATER LOOP SUPPLY OUTLET,Outlet,1
 Non-Parent Node Connection,HOT WATER LOOP DEMAND INLET NODE,PIPE:ADIABATIC,HOT WATER LOOP DEMAND INLET,Inlet,1
 Non-Parent Node Connection,HOT WATER LOOP DEMAND INLET OUTLET WATER NODE,PIPE:ADIABATIC,HOT WATER LOOP DEMAND INLET,Outlet,1
 Non-Parent Node Connection,HOT WATER LOOP COIL BYPASS INLET WATER NODE,PIPE:ADIABATIC,HOT WATER LOOP COIL BYPASS,Inlet,1
 Non-Parent Node Connection,HOT WATER LOOP COIL BYPASS OUTLET WATER NODE,PIPE:ADIABATIC,HOT WATER LOOP COIL BYPASS,Outlet,1
 Non-Parent Node Connection,HOT WATER LOOP DEMAND BYPASS PIPE INLET NODE,PIPE:ADIABATIC,HOT WATER LOOP DEMAND BYPASS PIPE,Inlet,1
 Non-Parent Node Connection,HOT WATER LOOP DEMAND BYPASS PIPE OUTLET NODE,PIPE:ADIABATIC,HOT WATER LOOP DEMAND BYPASS PIPE,Outlet,1
 Non-Parent Node Connection,HOT WATER LOOP DEMAND OUTLET INLET WATER NODE,PIPE:ADIABATIC,HOT WATER LOOP DEMAND OUTLET,Inlet,1
 Non-Parent Node Connection,HOT WATER LOOP DEMAND OUTLET NODE,PIPE:ADIABATIC,HOT WATER LOOP DEMAND OUTLET,Outlet,1
 Non-Parent Node Connection,CHILLED WATER LOOP DEMAND INLET OUTLET WATER NODE,CONNECTOR:SPLITTER,CHILLED WATER LOOP DEMAND SPLITTER,Inlet,1
 Non-Parent Node Connection,CHILLED WATER LOOP COIL BYPASS INLET WATER NODE,CONNECTOR:SPLITTER,CHILLED WATER LOOP DEMAND SPLITTER,Outlet,1
 Non-Parent Node Connection,3 ZONE VAV CLG COIL INLET WATER NODE,CONNECTOR:SPLITTER,CHILLED WATER LOOP DEMAND SPLITTER,Outlet,1
 Non-Parent Node Connection,CHILLED WATER LOOP DEMAND BYPASS PIPE INLET NODE,CONNECTOR:SPLITTER,CHILLED WATER LOOP DEMAND SPLITTER,Outlet,1
 Non-Parent Node Connection,CHILLED WATER LOOP DEMAND OUTLET INLET WATER NODE,CONNECTOR:MIXER,CHILLED WATER LOOP DEMAND MIXER,Outlet,1
 Non-Parent Node Connection,CHILLED WATER LOOP COIL BYPASS OUTLET WATER NODE,CONNECTOR:MIXER,CHILLED WATER LOOP DEMAND MIXER,Inlet,1
 Non-Parent Node Connection,3 ZONE VAV CLG COIL OUTLET WATER NODE,CONNECTOR:MIXER,CHILLED WATER LOOP DEMAND MIXER,Inlet,1
 Non-Parent Node Connection,CHILLED WATER LOOP DEMAND BYPASS PIPE OUTLET NODE,CONNECTOR:MIXER,CHILLED WATER LOOP DEMAND MIXER,Inlet,1
 Non-Parent Node Connection,CHILLED WATER LOOP PUMP OUTLET WATER NODE,CONNECTOR:SPLITTER,CHILLED WATER LOOP SUPPLY SPLITTER,Inlet,1
 Non-Parent Node Connection,NREL ZNE READY 2017    CHILLER 0 SUPPLY INLET WATER NODE,CONNECTOR:SPLITTER,CHILLED WATER LOOP SUPPLY SPLITTER,Outlet,1
 Non-Parent Node Connection,CHILLED WATER LOOP CHILLER BYPASS INLET WATER NODE,CONNECTOR:SPLITTER,CHILLED WATER LOOP SUPPLY SPLITTER,Outlet,1
 Non-Parent Node Connection,CHILLED WATER LOOP SUPPLY OUTLET INLET WATER NODE,CONNECTOR:MIXER,CHILLED WATER LOOP SUPPLY MIXER,Outlet,1
 Non-Parent Node Connection,NREL ZNE READY 2017    CHILLER 0 SUPPLY OUTLET WATER NODE,CONNECTOR:MIXER,CHILLED WATER LOOP SUPPLY MIXER,Inlet,1
 Non-Parent Node Connection,CHILLED WATER LOOP CHILLER BYPASS OUTLET WATER NODE,CONNECTOR:MIXER,CHILLED WATER LOOP SUPPLY MIXER,Inlet,1
 Non-Parent Node Connection,HOT WATER LOOP DEMAND INLET OUTLET WATER NODE,CONNECTOR:SPLITTER,HOT WATER LOOP DEMAND SPLITTER,Inlet,1
 Non-Parent Node Connection,HOT WATER LOOP COIL BYPASS INLET WATER NODE,CONNECTOR:SPLITTER,HOT WATER LOOP DEMAND SPLITTER,Outlet,1
 Non-Parent Node Connection,3 ZONE VAV MAIN HTG COIL INLET WATER NODE,CONNECTOR:SPLITTER,HOT WATER LOOP DEMAND SPLITTER,Outlet,1
 Non-Parent Node Connection,TZ_KITCHEN REHEAT COIL INLET WATER NODE,CONNECTOR:SPLITTER,HOT WATER LOOP DEMAND SPLITTER,Outlet,1
 Non-Parent Node Connection,TZ_DINING REHEAT COIL INLET WATER NODE,CONNECTOR:SPLITTER,HOT WATER LOOP DEMAND SPLITTER,Outlet,1
 Non-Parent Node Connection,TZ_LOBBY REHEAT COIL INLET WATER NODE,CONNECTOR:SPLITTER,HOT WATER LOOP DEMAND SPLITTER,Outlet,1
 Non-Parent Node Connection,HOT WATER LOOP DEMAND BYPASS PIPE INLET NODE,CONNECTOR:SPLITTER,HOT WATER LOOP DEMAND SPLITTER,Outlet,1
 Non-Parent Node Connection,HOT WATER LOOP DEMAND OUTLET INLET WATER NODE,CONNECTOR:MIXER,HOT WATER LOOP DEMAND MIXER,Outlet,1
 Non-Parent Node Connection,HOT WATER LOOP COIL BYPASS OUTLET WATER NODE,CONNECTOR:MIXER,HOT WATER LOOP DEMAND MIXER,Inlet,1
 Non-Parent Node Connection,3 ZONE VAV MAIN HTG COIL OUTLET WATER NODE,CONNECTOR:MIXER,HOT WATER LOOP DEMAND MIXER,Inlet,1
 Non-Parent Node Connection,TZ_KITCHEN REHEAT COIL OUTLET WATER NODE,CONNECTOR:MIXER,HOT WATER LOOP DEMAND MIXER,Inlet,1
 Non-Parent Node Connection,TZ_DINING REHEAT COIL OUTLET WATER NODE,CONNECTOR:MIXER,HOT WATER LOOP DEMAND MIXER,Inlet,1
 Non-Parent Node Connection,TZ_LOBBY REHEAT COIL OUTLET WATER NODE,CONNECTOR:MIXER,HOT WATER LOOP DEMAND MIXER,Inlet,1
 Non-Parent Node Connection,HOT WATER LOOP DEMAND BYPASS PIPE OUTLET NODE,CONNECTOR:MIXER,HOT WATER LOOP DEMAND MIXER,Inlet,1
 Non-Parent Node Connection,HOT WATER LOOP PUMP OUTLET WATER NODE,CONNECTOR:SPLITTER,HOT WATER LOOP SUPPLY SPLITTER,Inlet,1
 Non-Parent Node Connection,BOILER INLET WATER NODE,CONNECTOR:SPLITTER,HOT WATER LOOP SUPPLY SPLITTER,Outlet,1
 Non-Parent Node Connection,HOT WATER LOOP SUPPLY EQUIPMENT BYPASS INLET WATER NODE,CONNECTOR:SPLITTER,HOT WATER LOOP SUPPLY SPLITTER,Outlet,1
 Non-Parent Node Connection,HOT WATER LOOP SUPPLY OUTLET INLET WATER NODE,CONNECTOR:MIXER,HOT WATER LOOP SUPPLY MIXER,Outlet,1
 Non-Parent Node Connection,BOILER OUTLET WATER NODE,CONNECTOR:MIXER,HOT WATER LOOP SUPPLY MIXER,Inlet,1
 Non-Parent Node Connection,HOT WATER LOOP SUPPLY EQUIPMENT BYPASS OUTLET WATER NODE,CONNECTOR:MIXER,HOT WATER LOOP SUPPLY MIXER,Inlet,1
 Non-Parent Node Connection,3 ZONE VAV DEMAND INLET NODE,AIRLOOPHVAC:ZONESPLITTER,AIR LOOP HVAC ZONE SPLITTER 1,Inlet,1
 Non-Parent Node Connection,TZ_KITCHEN VAV TERMINAL INLET AIR NODE,AIRLOOPHVAC:ZONESPLITTER,AIR LOOP HVAC ZONE SPLITTER 1,Outlet,1
 Non-Parent Node Connection,TZ_DINING VAV TERMINAL INLET AIR NODE,AIRLOOPHVAC:ZONESPLITTER,AIR LOOP HVAC ZONE SPLITTER 1,Outlet,1
 Non-Parent Node Connection,TZ_LOBBY VAV TERMINAL INLET AIR NODE,AIRLOOPHVAC:ZONESPLITTER,AIR LOOP HVAC ZONE SPLITTER 1,Outlet,1
 Non-Parent Node Connection,TZ_DINING VAV TERMINAL DAMPER OUTLET,AIRTERMINAL:SINGLEDUCT:VAV:REHEAT,TZ_DINING VAV TERMINAL,Outlet,1
 Non-Parent Node Connection,TZ_DINING VAV TERMINAL INLET AIR NODE,AIRTERMINAL:SINGLEDUCT:VAV:REHEAT,TZ_DINING VAV TERMINAL,Inlet,1
 Non-Parent Node Connection,TZ_DINING REHEAT COIL INLET WATER NODE,COIL:HEATING:WATER,TZ_DINING REHEAT COIL,Inlet,2
 Non-Parent Node Connection,TZ_DINING REHEAT COIL OUTLET WATER NODE,COIL:HEATING:WATER,TZ_DINING REHEAT COIL,Outlet,2
 Non-Parent Node Connection,TZ_DINING VAV TERMINAL DAMPER OUTLET,COIL:HEATING:WATER,TZ_DINING REHEAT COIL,Inlet,1
 Non-Parent Node Connection,TZ_DINING VAV TERMINAL OUTLET AIR NODE,COIL:HEATING:WATER,TZ_DINING REHEAT COIL,Outlet,1
 Non-Parent Node Connection,TZ_KITCHEN REHEAT COIL INLET WATER NODE,COIL:HEATING:WATER,TZ_KITCHEN REHEAT COIL,Inlet,2
 Non-Parent Node Connection,TZ_KITCHEN REHEAT COIL OUTLET WATER NODE,COIL:HEATING:WATER,TZ_KITCHEN REHEAT COIL,Outlet,2
 Non-Parent Node Connection,TZ_KITCHEN VAV TERMINAL DAMPER OUTLET,COIL:HEATING:WATER,TZ_KITCHEN REHEAT COIL,Inlet,1
 Non-Parent Node Connection,TZ_KITCHEN VAV TERMINAL OUTLET AIR NODE,COIL:HEATING:WATER,TZ_KITCHEN REHEAT COIL,Outlet,1
 Non-Parent Node Connection,TZ_LOBBY REHEAT COIL INLET WATER NODE,COIL:HEATING:WATER,TZ_LOBBY REHEAT COIL,Inlet,2
 Non-Parent Node Connection,TZ_LOBBY REHEAT COIL OUTLET WATER NODE,COIL:HEATING:WATER,TZ_LOBBY REHEAT COIL,Outlet,2
 Non-Parent Node Connection,TZ_LOBBY VAV TERMINAL DAMPER OUTLET,COIL:HEATING:WATER,TZ_LOBBY REHEAT COIL,Inlet,1
 Non-Parent Node Connection,TZ_LOBBY VAV TERMINAL OUTLET AIR NODE,COIL:HEATING:WATER,TZ_LOBBY REHEAT COIL,Outlet,1
 Non-Parent Node Connection,3 ZONE VAV MAIN HTG COIL INLET WATER NODE,COIL:HEATING:WATER,3 ZONE VAV MAIN HTG COIL,Inlet,2
 Non-Parent Node Connection,3 ZONE VAV MAIN HTG COIL OUTLET WATER NODE,COIL:HEATING:WATER,3 ZONE VAV MAIN HTG COIL,Outlet,2
 Non-Parent Node Connection,3 ZONE VAV CLG COIL OUTLET AIR NODE,COIL:HEATING:WATER,3 ZONE VAV MAIN HTG COIL,Inlet,1
 Non-Parent Node Connection,3 ZONE VAV MAIN HTG COIL OUTLET AIR NODE,COIL:HEATING:WATER,3 ZONE VAV MAIN HTG COIL,Outlet,1
 Non-Parent Node Connection,3 ZONE VAV CLG COIL INLET WATER NODE,COIL:COOLING:WATER,3 ZONE VAV CLG COIL,Inlet,2
 Non-Parent Node Connection,3 ZONE VAV CLG COIL OUTLET WATER NODE,COIL:COOLING:WATER,3 ZONE VAV CLG COIL,Outlet,2
 Non-Parent Node Connection,3 ZONE VAV MIXED AIR NODE,COIL:COOLING:WATER,3 ZONE VAV CLG COIL,Inlet,1
 Non-Parent Node Connection,3 ZONE VAV CLG COIL OUTLET AIR NODE,COIL:COOLING:WATER,3 ZONE VAV CLG COIL,Outlet,1
 Non-Parent Node Connection,TZ_KITCHEN VAV TERMINAL DAMPER OUTLET,AIRTERMINAL:SINGLEDUCT:VAV:REHEAT,TZ_KITCHEN VAV TERMINAL,Outlet,1
 Non-Parent Node Connection,TZ_KITCHEN VAV TERMINAL INLET AIR NODE,AIRTERMINAL:SINGLEDUCT:VAV:REHEAT,TZ_KITCHEN VAV TERMINAL,Inlet,1
 Non-Parent Node Connection,TZ_LOBBY VAV TERMINAL DAMPER OUTLET,AIRTERMINAL:SINGLEDUCT:VAV:REHEAT,TZ_LOBBY VAV TERMINAL,Outlet,1
 Non-Parent Node Connection,TZ_LOBBY VAV TERMINAL INLET AIR NODE,AIRTERMINAL:SINGLEDUCT:VAV:REHEAT,TZ_LOBBY VAV TERMINAL,Inlet,1
 Non-Parent Node Connection,3 ZONE VAV CLG COIL OUTLET AIR NODE,CONTROLLER:WATERCOIL,3 ZONE VAV CLG COIL CONTROLLER,Sensor,1
 Non-Parent Node Connection,3 ZONE VAV CLG COIL INLET WATER NODE,CONTROLLER:WATERCOIL,3 ZONE VAV CLG COIL CONTROLLER,Actuator,1
 Non-Parent Node Connection,3 ZONE VAV MAIN HTG COIL OUTLET AIR NODE,CONTROLLER:WATERCOIL,3 ZONE VAV MAIN HTG COIL CONTROLLER,Sensor,1
 Non-Parent Node Connection,3 ZONE VAV MAIN HTG COIL INLET WATER NODE,CONTROLLER:WATERCOIL,3 ZONE VAV MAIN HTG COIL CONTROLLER,Actuator,1
 Non-Parent Node Connection,3 ZONE VAV DEMAND OUTLET NODE,AIRLOOPHVAC:ZONEMIXER,AIR LOOP HVAC ZONE MIXER 1,Outlet,1
 Non-Parent Node Connection,TZ_KITCHEN RETURN AIR NODE,AIRLOOPHVAC:ZONEMIXER,AIR LOOP HVAC ZONE MIXER 1,Inlet,1
 Non-Parent Node Connection,TZ_DINING RETURN AIR NODE,AIRLOOPHVAC:ZONEMIXER,AIR LOOP HVAC ZONE MIXER 1,Inlet,1
 Non-Parent Node Connection,TZ_LOBBY RETURN AIR NODE,AIRLOOPHVAC:ZONEMIXER,AIR LOOP HVAC ZONE MIXER 1,Inlet,1
 Non-Parent Node Connection,3 ZONE VAV MIXED AIR NODE,OUTDOORAIR:MIXER,3 ZONE VAV OA SYSTEM OUTDOOR AIR MIXER,Outlet,1
 Non-Parent Node Connection,NODE 2,OUTDOORAIR:MIXER,3 ZONE VAV OA SYSTEM OUTDOOR AIR MIXER,Inlet,1
 Non-Parent Node Connection,NODE 3,OUTDOORAIR:MIXER,3 ZONE VAV OA SYSTEM OUTDOOR AIR MIXER,ReliefAir,1
 Non-Parent Node Connection,3 ZONE VAV SUPPLY INLET NODE,OUTDOORAIR:MIXER,3 ZONE VAV OA SYSTEM OUTDOOR AIR MIXER,Inlet,1
 Non-Parent Node Connection,3 ZONE VAV MAIN HTG COIL OUTLET AIR NODE,FAN:VARIABLEVOLUME,3 ZONE VAV FAN,Inlet,1
 Non-Parent Node Connection,3 ZONE VAV SUPPLY OUTLET NODE,FAN:VARIABLEVOLUME,3 ZONE VAV FAN,Outlet,1
 Non-Parent Node Connection,3 ZONE VAV MIXED AIR NODE,CONTROLLER:OUTDOORAIR,3 ZONE VAV OA CONTROLLER,Sensor,1
 Non-Parent Node Connection,3 ZONE VAV OUTDOOR AIR NODE,CONTROLLER:OUTDOORAIR,3 ZONE VAV OA CONTROLLER,Actuator,1
 Non-Parent Node Connection,NODE 3,CONTROLLER:OUTDOORAIR,3 ZONE VAV OA CONTROLLER,Actuator,1
 Non-Parent Node Connection,3 ZONE VAV SUPPLY INLET NODE,CONTROLLER:OUTDOORAIR,3 ZONE VAV OA CONTROLLER,Sensor,1
 Non-Parent Node Connection,3 ZONE VAV OUTDOOR AIR NODE,HEATEXCHANGER:AIRTOAIR:SENSIBLEANDLATENT,3 ZONE VAV ERV,Inlet,1
 Non-Parent Node Connection,NODE 2,HEATEXCHANGER:AIRTOAIR:SENSIBLEANDLATENT,3 ZONE VAV ERV,Outlet,1
 Non-Parent Node Connection,NODE 3,HEATEXCHANGER:AIRTOAIR:SENSIBLEANDLATENT,3 ZONE VAV ERV,Inlet,2
 Non-Parent Node Connection,3 ZONE VAV RELIEF AIR NODE,HEATEXCHANGER:AIRTOAIR:SENSIBLEANDLATENT,3 ZONE VAV ERV,Outlet,2
 Non-Parent Node Connection,NREL ZNE READY 2017    CHILLER 0 SUPPLY INLET WATER NODE,CHILLER:ELECTRIC:EIR,NREL ZNE READY 2017    CHILLER 0 11TONS 1.1KW/TON,Inlet,1
 Non-Parent Node Connection,NREL ZNE READY 2017    CHILLER 0 SUPPLY OUTLET WATER NODE,CHILLER:ELECTRIC:EIR,NREL ZNE READY 2017    CHILLER 0 11TONS 1.1KW/TON,Outlet,1
 Non-Parent Node Connection,NREL ZNE READY 2017    CHILLER 0 11TONS 1.1KW/TON INLET NODE FOR CONDENSER,CHILLER:ELECTRIC:EIR,NREL ZNE READY 2017    CHILLER 0 11TONS 1.1KW/TON,OutsideAirReference,2
 Non-Parent Node Connection,NREL ZNE READY 2017    CHILLER 0 11TONS 1.1KW/TON OUTLET NODE FOR CONDENSER,CHILLER:ELECTRIC:EIR,NREL ZNE READY 2017    CHILLER 0 11TONS 1.1KW/TON,Outlet,2
 Non-Parent Node Connection,BOILER INLET WATER NODE,BOILER:HOTWATER,BOILER 89KBTU/HR 0.94 COMBUSTION EFF,Inlet,1
 Non-Parent Node Connection,BOILER OUTLET WATER NODE,BOILER:HOTWATER,BOILER 89KBTU/HR 0.94 COMBUSTION EFF,Outlet,1
 Non-Parent Node Connection,CHILLED WATER LOOP SUPPLY INLET NODE,PUMP:VARIABLESPEED,CHILLED WATER LOOP PUMP,Inlet,1
 Non-Parent Node Connection,CHILLED WATER LOOP PUMP OUTLET WATER NODE,PUMP:VARIABLESPEED,CHILLED WATER LOOP PUMP,Outlet,1
 Non-Parent Node Connection,HOT WATER LOOP SUPPLY INLET NODE,PUMP:VARIABLESPEED,HOT WATER LOOP PUMP,Inlet,1
 Non-Parent Node Connection,HOT WATER LOOP PUMP OUTLET WATER NODE,PUMP:VARIABLESPEED,HOT WATER LOOP PUMP,Outlet,1
