{
  "completed_at": "20181105T193009Z",
  "completed_status": "Success",
  "created_at": "2018-11-05 12:25:20 -0700",
  "current_step": 24,
  "description": "Autogenerated 2",
  "eplusout_err": "Program Version,EnergyPlus, Version 9.0.1-bb7ca4f0da, YMD=2018.11.05 12:26,\n   ************* Beginning Zone Sizing Calculations\n   ** Warning ** ProcessScheduleInput: Schedule:Day:Interval=\"24 HR SERVICE COOLING SETPT SUMMER DESIGN DAY\", Blank Schedule Type Limits Name input -- will not be validated.\n   ** Warning ** ProcessScheduleInput: Schedule:Day:Interval=\"24 HR SERVICE COOLING SETPT SUMMER DESIGN DAY 1\", Blank Schedule Type Limits Name input -- will not be validated.\n   ** Warning ** ProcessScheduleInput: Schedule:Day:Interval=\"24 HR SERVICE COOLING SETPT WINTER DESIGN DAY\", Blank Schedule Type Limits Name input -- will not be validated.\n   ** Warning ** ProcessScheduleInput: Schedule:Day:Interval=\"24 HR SERVICE COOLING SETPT WINTER DESIGN DAY 1\", Blank Schedule Type Limits Name input -- will not be validated.\n   ** Warning ** ProcessScheduleInput: Schedule:Day:Interval=\"24 HR SERVICE EQUIPMENT SUMMER DESIGN DAY\", Blank Schedule Type Limits Name input -- will not be validated.\n   ** Warning ** ProcessScheduleInput: Schedule:Day:Interval=\"24 HR SERVICE EQUIPMENT SUMMER DESIGN DAY 2\", Blank Schedule Type Limits Name input -- will not be validated.\n   ** Warning ** ProcessScheduleInput: Schedule:Day:Interval=\"24 HR SERVICE EQUIPMENT WINTER DESIGN DAY\", Blank Schedule Type Limits Name input -- will not be validated.\n   ** Warning ** ProcessScheduleInput: Schedule:Day:Interval=\"24 HR SERVICE EQUIPMENT WINTER DESIGN DAY 2\", Blank Schedule Type Limits Name input -- will not be validated.\n   ** Warning ** ProcessScheduleInput: Schedule:Day:Interval=\"24 HR SERVICE HEATING SETPT SUMMER DESIGN DAY\", Blank Schedule Type Limits Name input -- will not be validated.\n   ** Warning ** ProcessScheduleInput: Schedule:Day:Interval=\"24 HR SERVICE HEATING SETPT SUMMER DESIGN DAY 1\", Blank Schedule Type Limits Name input -- will not be validated.\n   ** Warning ** ProcessScheduleInput: Schedule:Day:Interval=\"24 HR SERVICE HEATING SETPT WINTER DESIGN DAY\", Blank Schedule Type Limits Name input -- will not be validated.\n   ** Warning ** ProcessScheduleInput: Schedule:Day:Interval=\"24 HR SERVICE HEATING SETPT WINTER DESIGN DAY 1\", Blank Schedule Type Limits Name input -- will not be validated.\n   ** Warning ** ProcessScheduleInput: Schedule:Day:Interval=\"24 HR SERVICE HVAC AVAILABILITY SUMMER DESIGN DAY\", Blank Schedule Type Limits Name input -- will not be validated.\n   ** Warning ** ProcessScheduleInput: Schedule:Day:Interval=\"24 HR SERVICE HVAC AVAILABILITY SUMMER DESIGN DAY 2\", Blank Schedule Type Limits Name input -- will not be validated.\n   ** Warning ** ProcessScheduleInput: Schedule:Day:Interval=\"24 HR SERVICE HVAC AVAILABILITY WINTER DESIGN DAY\", Blank Schedule Type Limits Name input -- will not be validated.\n   ** Warning ** ProcessScheduleInput: Schedule:Day:Interval=\"24 HR SERVICE HVAC AVAILABILITY WINTER DESIGN DAY 2\", Blank Schedule Type Limits Name input -- will not be validated.\n   ** Warning ** ProcessScheduleInput: Schedule:Day:Interval=\"24 HR SERVICE INFILTRATION SUMMER DESIGN DAY\", Blank Schedule Type Limits Name input -- will not be validated.\n   ** Warning ** ProcessScheduleInput: Schedule:Day:Interval=\"24 HR SERVICE INFILTRATION SUMMER DESIGN DAY 2\", Blank Schedule Type Limits Name input -- will not be validated.\n   ** Warning ** ProcessScheduleInput: Schedule:Day:Interval=\"24 HR SERVICE INFILTRATION WINTER DESIGN DAY\", Blank Schedule Type Limits Name input -- will not be validated.\n   ** Warning ** ProcessScheduleInput: Schedule:Day:Interval=\"24 HR SERVICE INFILTRATION WINTER DESIGN DAY 2\", Blank Schedule Type Limits Name input -- will not be validated.\n   ** Warning ** ProcessScheduleInput: Schedule:Day:Interval=\"24 HR SERVICE LIGHTING SUMMER DESIGN DAY\", Blank Schedule Type Limits Name input -- will not be validated.\n   ** Warning ** ProcessScheduleInput: Schedule:Day:Interval=\"24 HR SERVICE LIGHTING SUMMER DESIGN DAY 2\", Blank Schedule Type Limits Name input -- will not be validated.\n   ** Warning ** ProcessScheduleInput: Schedule:Day:Interval=\"24 HR SERVICE LIGHTING WINTER DESIGN DAY\", Blank Schedule Type Limits Name input -- will not be validated.\n   ** Warning ** ProcessScheduleInput: Schedule:Day:Interval=\"24 HR SERVICE LIGHTING WINTER DESIGN DAY 2\", Blank Schedule Type Limits Name input -- will not be validated.\n   ** Warning ** ProcessScheduleInput: Schedule:Day:Interval=\"AEDG SWH-LATENT-FRACTION-SCHEDULE ALL DAYS\", Blank Schedule Type Limits Name input -- will not be validated.\n   ** Warning ** ProcessScheduleInput: Schedule:Day:Interval=\"AEDG SWH-SENSIBLE-FRACTION-SCHEDULE ALL DAYS\", Blank Schedule Type Limits Name input -- will not be validated.\n   ** Warning ** ProcessScheduleInput: Schedule:Day:Interval=\"AEDG SWH-TARGET-TEMPERATURE-SCHEDULE ALL DAYS\", Blank Schedule Type Limits Name input -- will not be validated.\n   ** Warning ** ProcessScheduleInput: Schedule:Day:Interval=\"ECONOMIZER MAX OA FRACTION 70 PCT DEFAULT\", Blank Schedule Type Limits Name input -- will not be validated.\n   ** Warning ** ProcessScheduleInput: Schedule:Day:Interval=\"ECONOMIZER MAX OA FRACTION 70 PCT DEFAULT 1\", Blank Schedule Type Limits Name input -- will not be validated.\n   ** Warning ** ProcessScheduleInput: Schedule:Day:Interval=\"GENERAL COOLING SETPT SUMMER DESIGN DAY\", Blank Schedule Type Limits Name input -- will not be validated.\n   ** Warning ** ProcessScheduleInput: Schedule:Day:Interval=\"GENERAL COOLING SETPT SUMMER DESIGN DAY 1\", Blank Schedule Type Limits Name input -- will not be validated.\n   ** Warning ** ProcessScheduleInput: Schedule:Day:Interval=\"GENERAL COOLING SETPT WINTER DESIGN DAY\", Blank Schedule Type Limits Name input -- will not be validated.\n   ** Warning ** ProcessScheduleInput: Schedule:Day:Interval=\"GENERAL COOLING SETPT WINTER DESIGN DAY 1\", Blank Schedule Type Limits Name input -- will not be validated.\n   ** Warning ** ProcessScheduleInput: Schedule:Day:Interval=\"GENERAL EQUIPMENT SUMMER DESIGN DAY\", Blank Schedule Type Limits Name input -- will not be validated.\n   ** Warning ** ProcessScheduleInput: Schedule:Day:Interval=\"GENERAL EQUIPMENT SUMMER DESIGN DAY 2\", Blank Schedule Type Limits Name input -- will not be validated.\n   ** Warning ** ProcessScheduleInput: Schedule:Day:Interval=\"GENERAL EQUIPMENT WINTER DESIGN DAY\", Blank Schedule Type Limits Name input -- will not be validated.\n   ** Warning ** ProcessScheduleInput: Schedule:Day:Interval=\"GENERAL EQUIPMENT WINTER DESIGN DAY 2\", Blank Schedule Type Limits Name input -- will not be validated.\n   ** Warning ** ProcessScheduleInput: Schedule:Day:Interval=\"GENERAL HEATING SETPT SUMMER DESIGN DAY\", Blank Schedule Type Limits Name input -- will not be validated.\n   ** Warning ** ProcessScheduleInput: Schedule:Day:Interval=\"GENERAL HEATING SETPT SUMMER DESIGN DAY 1\", Blank Schedule Type Limits Name input -- will not be validated.\n   ** Warning ** ProcessScheduleInput: Schedule:Day:Interval=\"GENERAL HEATING SETPT WINTER DESIGN DAY\", Blank Schedule Type Limits Name input -- will not be validated.\n   ** Warning ** ProcessScheduleInput: Schedule:Day:Interval=\"GENERAL HEATING SETPT WINTER DESIGN DAY 1\", Blank Schedule Type Limits Name input -- will not be validated.\n   ** Warning ** ProcessScheduleInput: Schedule:Day:Interval=\"GENERAL HVAC AVAILABILITY SUMMER DESIGN DAY\", Blank Schedule Type Limits Name input -- will not be validated.\n   ** Warning ** ProcessScheduleInput: Schedule:Day:Interval=\"GENERAL HVAC AVAILABILITY SUMMER DESIGN DAY 2\", Blank Schedule Type Limits Name input -- will not be validated.\n   ** Warning ** ProcessScheduleInput: Schedule:Day:Interval=\"GENERAL HVAC AVAILABILITY WINTER DESIGN DAY\", Blank Schedule Type Limits Name input -- will not be validated.\n   ** Warning ** ProcessScheduleInput: Schedule:Day:Interval=\"GENERAL HVAC AVAILABILITY WINTER DESIGN DAY 2\", Blank Schedule Type Limits Name input -- will not be validated.\n   ** Warning ** ProcessScheduleInput: Schedule:Day:Interval=\"GENERAL INFILTRATION SUMMER DESIGN DAY\", Blank Schedule Type Limits Name input -- will not be validated.\n   ** Warning ** ProcessScheduleInput: Schedule:Day:Interval=\"GENERAL INFILTRATION SUMMER DESIGN DAY 2\", Blank Schedule Type Limits Name input -- will not be validated.\n   ** Warning ** ProcessScheduleInput: Schedule:Day:Interval=\"GENERAL INFILTRATION WINTER DESIGN DAY\", Blank Schedule Type Limits Name input -- will not be validated.\n   ** Warning ** ProcessScheduleInput: Schedule:Day:Interval=\"GENERAL INFILTRATION WINTER DESIGN DAY 2\", Blank Schedule Type Limits Name input -- will not be validated.\n   ** Warning ** ProcessScheduleInput: Schedule:Day:Interval=\"GENERAL LIGHTING SUMMER DESIGN DAY\", Blank Schedule Type Limits Name input -- will not be validated.\n   ** Warning ** ProcessScheduleInput: Schedule:Day:Interval=\"GENERAL LIGHTING SUMMER DESIGN DAY 2\", Blank Schedule Type Limits Name input -- will not be validated.\n   ** Warning ** ProcessScheduleInput: Schedule:Day:Interval=\"GENERAL LIGHTING WINTER DESIGN DAY\", Blank Schedule Type Limits Name input -- will not be validated.\n   ** Warning ** ProcessScheduleInput: Schedule:Day:Interval=\"GENERAL LIGHTING WINTER DESIGN DAY 2\", Blank Schedule Type Limits Name input -- will not be validated.\n   ** Warning ** ProcessScheduleInput: Schedule:Day:Interval=\"GENERAL OCCUPANCY SUMMER DESIGN DAY\", Blank Schedule Type Limits Name input -- will not be validated.\n   ** Warning ** ProcessScheduleInput: Schedule:Day:Interval=\"GENERAL OCCUPANCY SUMMER DESIGN DAY 2\", Blank Schedule Type Limits Name input -- will not be validated.\n   ** Warning ** ProcessScheduleInput: Schedule:Day:Interval=\"GENERAL OCCUPANCY WINTER DESIGN DAY\", Blank Schedule Type Limits Name input -- will not be validated.\n   ** Warning ** ProcessScheduleInput: Schedule:Day:Interval=\"GENERAL OCCUPANCY WINTER DESIGN DAY 2\", Blank Schedule Type Limits Name input -- will not be validated.\n   ** Warning ** ProcessScheduleInput: Schedule:Day:Interval=\"NEW OFFICE VENTILATION SCHEDULE SATURDAY\", Blank Schedule Type Limits Name input -- will not be validated.\n   ** Warning ** ProcessScheduleInput: Schedule:Day:Interval=\"NEW OFFICE VENTILATION SCHEDULE SUMMER DESIGN DAY\", Blank Schedule Type Limits Name input -- will not be validated.\n   ** Warning ** ProcessScheduleInput: Schedule:Day:Interval=\"NEW OFFICE VENTILATION SCHEDULE SUNDAY\", Blank Schedule Type Limits Name input -- will not be validated.\n   ** Warning ** ProcessScheduleInput: Schedule:Day:Interval=\"NEW OFFICE VENTILATION SCHEDULE WEEKDAY\", Blank Schedule Type Limits Name input -- will not be validated.\n   ** Warning ** ProcessScheduleInput: Schedule:Day:Interval=\"NEW OFFICE VENTILATION SCHEDULE WINTER DESIGN DAY\", Blank Schedule Type Limits Name input -- will not be validated.\n   ** Warning ** ProcessScheduleInput: Schedule:Day:Interval=\"SCHEDULE DAY 28\", Blank Schedule Type Limits Name input -- will not be validated.\n   ** Warning ** ProcessScheduleInput: Schedule:Day:Interval=\"SCHEDULE DAY 3\", Blank Schedule Type Limits Name input -- will not be validated.\n   ** Warning ** ProcessScheduleInput: Schedule:Day:Interval=\"SCHEDULE DAY 30\", Blank Schedule Type Limits Name input -- will not be validated.\n   ** Warning ** ProcessScheduleInput: Schedule:Day:Interval=\"SCHEDULE DAY 4\", Blank Schedule Type Limits Name input -- will not be validated.\n   ** Warning ** ProcessScheduleInput: Schedule:Day:Interval=\"SCHEDULE DAY 48\", Blank Schedule Type Limits Name input -- will not be validated.\n   ** Warning ** ProcessScheduleInput: Schedule:Day:Interval=\"SCHEDULE DAY 49\", Blank Schedule Type Limits Name input -- will not be validated.\n   ** Warning ** ProcessScheduleInput: Schedule:Day:Interval=\"SCHEDULE DAY 5\", Blank Schedule Type Limits Name input -- will not be validated.\n   ** Warning ** ProcessScheduleInput: Schedule:Day:Interval=\"SCHEDULE DAY 50\", Blank Schedule Type Limits Name input -- will not be validated.\n   ** Warning ** ProcessScheduleInput: Schedule:Day:Interval=\"SCHEDULE DAY 51\", Blank Schedule Type Limits Name input -- will not be validated.\n   ** Warning ** ProcessScheduleInput: Schedule:Day:Interval=\"SCHEDULE DAY 52\", Blank Schedule Type Limits Name input -- will not be validated.\n   ** Warning ** ProcessScheduleInput: Schedule:Day:Interval=\"SCHEDULE DAY 53\", Blank Schedule Type Limits Name input -- will not be validated.\n   ** Warning ** ProcessScheduleInput: Schedule:Day:Interval=\"SCHEDULE DAY 54\", Blank Schedule Type Limits Name input -- will not be validated.\n   ** Warning ** ProcessScheduleInput: Schedule:Day:Interval=\"SCHEDULE DAY 55\", Blank Schedule Type Limits Name input -- will not be validated.\n   ** Warning ** ProcessScheduleInput: Schedule:Day:Interval=\"SCHEDULE DAY 57\", Blank Schedule Type Limits Name input -- will not be validated.\n   ** Warning ** ProcessScheduleInput: Schedule:Day:Interval=\"SCHEDULE DAY 58\", Blank Schedule Type Limits Name input -- will not be validated.\n   ** Warning ** ProcessScheduleInput: Schedule:Day:Interval=\"SCHEDULE DAY 59\", Blank Schedule Type Limits Name input -- will not be validated.\n   ** Warning ** ProcessScheduleInput: Schedule:Day:Interval=\"SCHEDULE DAY 6\", Blank Schedule Type Limits Name input -- will not be validated.\n   ** Warning ** ProcessScheduleInput: Schedule:Day:Interval=\"SCHEDULE DAY 60\", Blank Schedule Type Limits Name input -- will not be validated.\n   ** Warning ** ProcessScheduleInput: Schedule:Day:Interval=\"SCHEDULE DAY 61\", Blank Schedule Type Limits Name input -- will not be validated.\n   ** Warning ** ProcessScheduleInput: Schedule:Day:Interval=\"SCHEDULE DAY 62\", Blank Schedule Type Limits Name input -- will not be validated.\n   ** Warning ** ProcessScheduleInput: Schedule:Year=\"AEDG SWH-LATENT-FRACTION-SCHEDULE\", Blank Schedule Type Limits Name input -- will not be validated.\n   ** Warning ** ProcessScheduleInput: Schedule:Year=\"AEDG SWH-SENSIBLE-FRACTION-SCHEDULE\", Blank Schedule Type Limits Name input -- will not be validated.\n   ** Warning ** ProcessScheduleInput: Schedule:Year=\"AEDG SWH-TARGET-TEMPERATURE-SCHEDULE\", Blank Schedule Type Limits Name input -- will not be validated.\n   ** Warning ** ProcessScheduleInput: Schedule:Year=\"ECONOMIZER MAX OA FRACTION 70 PCT\", Blank Schedule Type Limits Name input -- will not be validated.\n   ** Warning ** ProcessScheduleInput: Schedule:Year=\"ECONOMIZER MAX OA FRACTION 70 PCT 1\", Blank Schedule Type Limits Name input -- will not be validated.\n   ** Warning ** ProcessScheduleInput: Schedule:Year=\"NEW OFFICE VENTILATION SCHEDULE\", Blank Schedule Type Limits Name input -- will not be validated.\n   ** Warning ** ProcessScheduleInput: Schedule:Constant=\"ALWAYS ON CONTINUOUS\", Blank Schedule Type Limits Name input -- will not be validated.\n   ** Warning ** GetHTSurfaceData: Surfaces with interface to Ground found but no \"Ground Temperatures\" were input.\n   **   ~~~   ** Found first in surface=SURFACE 147\n   **   ~~~   ** Defaults, constant throughout the year of (18.0) will be used.\n   ** Warning ** CalculateZoneVolume: 5 zones are not fully enclosed. For more details use:  Output:Diagnostics,DisplayExtrawarnings; \n   ** Warning ** CheckUsedConstructions: There are 4 nominally unused constructions in input.\n   **   ~~~   ** For explicit details on each unused construction, use Output:Diagnostics,DisplayExtraWarnings;\n   ** Warning ** GetDaylightingControls: Fraction of Zone controlled by the Daylighting reference points is < 1.0.\n   **   ~~~   ** ..discovered in \"Daylighting:Controls\" for Zone=\"ZONE - LOBBY102\", only 0.80 of the zone is controlled.\n   ** Warning ** GetDaylightingControls: Fraction of Zone controlled by the Daylighting reference points is < 1.0.\n   **   ~~~   ** ..discovered in \"Daylighting:Controls\" for Zone=\"ZONE - LOBBY106\", only 0.80 of the zone is controlled.\n   ** Warning ** GetDaylightingControls: Fraction of Zone controlled by the Daylighting reference points is < 1.0.\n   **   ~~~   ** ..discovered in \"Daylighting:Controls\" for Zone=\"ZONE - OPENOFFICE201\", only 0.87 of the zone is controlled.\n   ** Warning ** GetDaylightingControls: Fraction of Zone controlled by the Daylighting reference points is < 1.0.\n   **   ~~~   ** ..discovered in \"Daylighting:Controls\" for Zone=\"ZONE - OPENOFFICE204\", only 0.87 of the zone is controlled.\n   ** Warning ** GetDaylightingControls: Fraction of Zone controlled by the Daylighting reference points is < 1.0.\n   **   ~~~   ** ..discovered in \"Daylighting:Controls\" for Zone=\"ZONE - PRIVATEOFFICE101\", only 0.91 of the zone is controlled.\n   ** Warning ** GetDaylightingControls: Fraction of Zone controlled by the Daylighting reference points is < 1.0.\n   **   ~~~   ** ..discovered in \"Daylighting:Controls\" for Zone=\"ZONE - PRIVATEOFFICE105\", only 0.91 of the zone is controlled.\n   ** Warning ** GetSimpleAirModelInputs: ZoneInfiltration:DesignFlowRate=\"ZONE - CORRIDOR111 SPACE INFILTRATION DESIGN FLOW RATE 6\", Design Flow Rate Calculation Method specifies Flow per Exterior Surface Area, but Exterior Surface Area = 0.  0 Infiltration will result.\n   ** Warning ** GetSimpleAirModelInputs: ZoneInfiltration:DesignFlowRate=\"ZONE - CORRIDOR119 SPACE INFILTRATION DESIGN FLOW RATE 6\", Design Flow Rate Calculation Method specifies Flow per Exterior Surface Area, but Exterior Surface Area = 0.  0 Infiltration will result.\n   ** Warning ** GetSimpleAirModelInputs: ZoneInfiltration:DesignFlowRate=\"ZONE - DATA113 SPACE INFILTRATION DESIGN FLOW RATE 7\", Design Flow Rate Calculation Method specifies Flow per Exterior Surface Area, but Exterior Surface Area = 0.  0 Infiltration will result.\n   ** Warning ** GetSimpleAirModelInputs: ZoneInfiltration:DesignFlowRate=\"ZONE - ELEVATOR115 SPACE INFILTRATION DESIGN FLOW RATE 5\", Design Flow Rate Calculation Method specifies Flow per Exterior Surface Area, but Exterior Surface Area = 0.  0 Infiltration will result.\n   ** Warning ** GetSimpleAirModelInputs: ZoneInfiltration:DesignFlowRate=\"ZONE - LOUNGE112 SPACE INFILTRATION DESIGN FLOW RATE 4\", Design Flow Rate Calculation Method specifies Flow per Exterior Surface Area, but Exterior Surface Area = 0.  0 Infiltration will result.\n   ** Warning ** GetSimpleAirModelInputs: ZoneInfiltration:DesignFlowRate=\"ZONE - MEEL117 SPACE INFILTRATION DESIGN FLOW RATE 1\", Design Flow Rate Calculation Method specifies Flow per Exterior Surface Area, but Exterior Surface Area = 0.  0 Infiltration will result.\n   ** Warning ** GetSimpleAirModelInputs: ZoneInfiltration:DesignFlowRate=\"ZONE - OPENOFFICE110 SPACE INFILTRATION DESIGN FLOW RATE 11\", Design Flow Rate Calculation Method specifies Flow per Exterior Surface Area, but Exterior Surface Area = 0.  0 Infiltration will result.\n   ** Warning ** GetSimpleAirModelInputs: ZoneInfiltration:DesignFlowRate=\"ZONE - OPENOFFICE120 SPACE INFILTRATION DESIGN FLOW RATE 11\", Design Flow Rate Calculation Method specifies Flow per Exterior Surface Area, but Exterior Surface Area = 0.  0 Infiltration will result.\n   ** Warning ** GetSimpleAirModelInputs: ZoneInfiltration:DesignFlowRate=\"ZONE - PRIVATEOFFICE109 SPACE INFILTRATION DESIGN FLOW RATE 3\", Design Flow Rate Calculation Method specifies Flow per Exterior Surface Area, but Exterior Surface Area = 0.  0 Infiltration will result.\n   ** Warning ** GetSimpleAirModelInputs: ZoneInfiltration:DesignFlowRate=\"ZONE - PRIVATEOFFICE121 SPACE INFILTRATION DESIGN FLOW RATE 3\", Design Flow Rate Calculation Method specifies Flow per Exterior Surface Area, but Exterior Surface Area = 0.  0 Infiltration will result.\n   ** Warning ** GetSimpleAirModelInputs: ZoneInfiltration:DesignFlowRate=\"ZONE - RESTROOMS114 SPACE INFILTRATION DESIGN FLOW RATE 2\", Design Flow Rate Calculation Method specifies Flow per Exterior Surface Area, but Exterior Surface Area = 0.  0 Infiltration will result.\n   ** Warning ** GetSimpleAirModelInputs: ZoneInfiltration:DesignFlowRate=\"ZONE - STAIRS118 SPACE INFILTRATION DESIGN FLOW RATE 9\", Design Flow Rate Calculation Method specifies Flow per Exterior Surface Area, but Exterior Surface Area = 0.  0 Infiltration will result.\n   ** Warning ** GetSimpleAirModelInputs: ZoneInfiltration:DesignFlowRate=\"ZONE - STORAGE116 SPACE INFILTRATION DESIGN FLOW RATE 12\", Design Flow Rate Calculation Method specifies Flow per Exterior Surface Area, but Exterior Surface Area = 0.  0 Infiltration will result.\n   ************* Beginning System Sizing Calculations\n   ** Warning ** Since Zone Minimum Air Flow Input Method = CONSTANT, input for Fixed Minimum Air Flow Rate will be ignored.\n   **   ~~~   ** Occurs in AirTerminal:SingleDuct:VAV:NoReheat = ZONE - CONFERENCE103 AIR TERMINAL\n   ** Warning ** Since Zone Minimum Air Flow Input Method = CONSTANT, input for Fixed Minimum Air Flow Rate will be ignored.\n   **   ~~~   ** Occurs in AirTerminal:SingleDuct:VAV:NoReheat = ZONE - CONFERENCE107 AIR TERMINAL\n   ** Warning ** Since Zone Minimum Air Flow Input Method = CONSTANT, input for Fixed Minimum Air Flow Rate will be ignored.\n   **   ~~~   ** Occurs in AirTerminal:SingleDuct:VAV:NoReheat = ZONE - CONFERENCE202 AIR TERMINAL\n   ** Warning ** Since Zone Minimum Air Flow Input Method = CONSTANT, input for Fixed Minimum Air Flow Rate will be ignored.\n   **   ~~~   ** Occurs in AirTerminal:SingleDuct:VAV:NoReheat = ZONE - CONFERENCE205 AIR TERMINAL\n   ** Warning ** Since Zone Minimum Air Flow Input Method = CONSTANT, input for Fixed Minimum Air Flow Rate will be ignored.\n   **   ~~~   ** Occurs in AirTerminal:SingleDuct:VAV:NoReheat = ZONE - CORRIDOR111 AIR TERMINAL\n   ** Warning ** Since Zone Minimum Air Flow Input Method = CONSTANT, input for Fixed Minimum Air Flow Rate will be ignored.\n   **   ~~~   ** Occurs in AirTerminal:SingleDuct:VAV:NoReheat = ZONE - CORRIDOR119 AIR TERMINAL\n   ** Warning ** Since Zone Minimum Air Flow Input Method = CONSTANT, input for Fixed Minimum Air Flow Rate will be ignored.\n   **   ~~~   ** Occurs in AirTerminal:SingleDuct:VAV:NoReheat = ZONE - CORRIDOR209 AIR TERMINAL\n   ** Warning ** Since Zone Minimum Air Flow Input Method = CONSTANT, input for Fixed Minimum Air Flow Rate will be ignored.\n   **   ~~~   ** Occurs in AirTerminal:SingleDuct:VAV:NoReheat = ZONE - CORRIDOR217 AIR TERMINAL\n   ** Warning ** Since Zone Minimum Air Flow Input Method = CONSTANT, input for Fixed Minimum Air Flow Rate will be ignored.\n   **   ~~~   ** Occurs in AirTerminal:SingleDuct:VAV:NoReheat = ZONE - LOBBY102 AIR TERMINAL\n   ** Warning ** Since Zone Minimum Air Flow Input Method = CONSTANT, input for Fixed Minimum Air Flow Rate will be ignored.\n   **   ~~~   ** Occurs in AirTerminal:SingleDuct:VAV:NoReheat = ZONE - LOBBY106 AIR TERMINAL\n   ** Warning ** Since Zone Minimum Air Flow Input Method = CONSTANT, input for Fixed Minimum Air Flow Rate will be ignored.\n   **   ~~~   ** Occurs in AirTerminal:SingleDuct:VAV:NoReheat = ZONE - LOUNGE112 AIR TERMINAL\n   ** Warning ** Since Zone Minimum Air Flow Input Method = CONSTANT, input for Fixed Minimum Air Flow Rate will be ignored.\n   **   ~~~   ** Occurs in AirTerminal:SingleDuct:VAV:NoReheat = ZONE - LOUNGE210 AIR TERMINAL\n   ** Warning ** Since Zone Minimum Air Flow Input Method = CONSTANT, input for Fixed Minimum Air Flow Rate will be ignored.\n   **   ~~~   ** Occurs in AirTerminal:SingleDuct:VAV:NoReheat = ZONE - OPENOFFICE104 AIR TERMINAL\n   ** Warning ** Since Zone Minimum Air Flow Input Method = CONSTANT, input for Fixed Minimum Air Flow Rate will be ignored.\n   **   ~~~   ** Occurs in AirTerminal:SingleDuct:VAV:NoReheat = ZONE - OPENOFFICE108 AIR TERMINAL\n   ** Warning ** Since Zone Minimum Air Flow Input Method = CONSTANT, input for Fixed Minimum Air Flow Rate will be ignored.\n   **   ~~~   ** Occurs in AirTerminal:SingleDuct:VAV:NoReheat = ZONE - OPENOFFICE110 AIR TERMINAL\n   ** Warning ** Since Zone Minimum Air Flow Input Method = CONSTANT, input for Fixed Minimum Air Flow Rate will be ignored.\n   **   ~~~   ** Occurs in AirTerminal:SingleDuct:VAV:NoReheat = ZONE - OPENOFFICE120 AIR TERMINAL\n   ** Warning ** Since Zone Minimum Air Flow Input Method = CONSTANT, input for Fixed Minimum Air Flow Rate will be ignored.\n   **   ~~~   ** Occurs in AirTerminal:SingleDuct:VAV:NoReheat = ZONE - OPENOFFICE201 AIR TERMINAL\n   ** Warning ** Since Zone Minimum Air Flow Input Method = CONSTANT, input for Fixed Minimum Air Flow Rate will be ignored.\n   **   ~~~   ** Occurs in AirTerminal:SingleDuct:VAV:NoReheat = ZONE - OPENOFFICE204 AIR TERMINAL\n   ** Warning ** Since Zone Minimum Air Flow Input Method = CONSTANT, input for Fixed Minimum Air Flow Rate will be ignored.\n   **   ~~~   ** Occurs in AirTerminal:SingleDuct:VAV:NoReheat = ZONE - OPENOFFICE207 AIR TERMINAL\n   ** Warning ** Since Zone Minimum Air Flow Input Method = CONSTANT, input for Fixed Minimum Air Flow Rate will be ignored.\n   **   ~~~   ** Occurs in AirTerminal:SingleDuct:VAV:NoReheat = ZONE - OPENOFFICE219 AIR TERMINAL\n   ** Warning ** Since Zone Minimum Air Flow Input Method = CONSTANT, input for Fixed Minimum Air Flow Rate will be ignored.\n   **   ~~~   ** Occurs in AirTerminal:SingleDuct:VAV:NoReheat = ZONE - PRIVATEOFFICE101 AIR TERMINAL\n   ** Warning ** Since Zone Minimum Air Flow Input Method = CONSTANT, input for Fixed Minimum Air Flow Rate will be ignored.\n   **   ~~~   ** Occurs in AirTerminal:SingleDuct:VAV:NoReheat = ZONE - PRIVATEOFFICE105 AIR TERMINAL\n   ** Warning ** Since Zone Minimum Air Flow Input Method = CONSTANT, input for Fixed Minimum Air Flow Rate will be ignored.\n   **   ~~~   ** Occurs in AirTerminal:SingleDuct:VAV:NoReheat = ZONE - PRIVATEOFFICE109 AIR TERMINAL\n   ** Warning ** Since Zone Minimum Air Flow Input Method = CONSTANT, input for Fixed Minimum Air Flow Rate will be ignored.\n   **   ~~~   ** Occurs in AirTerminal:SingleDuct:VAV:NoReheat = ZONE - PRIVATEOFFICE121 AIR TERMINAL\n   ** Warning ** Since Zone Minimum Air Flow Input Method = CONSTANT, input for Fixed Minimum Air Flow Rate will be ignored.\n   **   ~~~   ** Occurs in AirTerminal:SingleDuct:VAV:NoReheat = ZONE - PRIVATEOFFICE203 AIR TERMINAL\n   ** Warning ** Since Zone Minimum Air Flow Input Method = CONSTANT, input for Fixed Minimum Air Flow Rate will be ignored.\n   **   ~~~   ** Occurs in AirTerminal:SingleDuct:VAV:NoReheat = ZONE - PRIVATEOFFICE206 AIR TERMINAL\n   ** Warning ** Since Zone Minimum Air Flow Input Method = CONSTANT, input for Fixed Minimum Air Flow Rate will be ignored.\n   **   ~~~   ** Occurs in AirTerminal:SingleDuct:VAV:NoReheat = ZONE - PRIVATEOFFICE208 AIR TERMINAL\n   ** Warning ** Since Zone Minimum Air Flow Input Method = CONSTANT, input for Fixed Minimum Air Flow Rate will be ignored.\n   **   ~~~   ** Occurs in AirTerminal:SingleDuct:VAV:NoReheat = ZONE - PRIVATEOFFICE218 AIR TERMINAL\n   ** Warning ** Since Zone Minimum Air Flow Input Method = CONSTANT, input for Fixed Minimum Air Flow Rate will be ignored.\n   **   ~~~   ** Occurs in AirTerminal:SingleDuct:VAV:NoReheat = ZONE - STORAGE116 AIR TERMINAL\n   ** Warning ** Since Zone Minimum Air Flow Input Method = CONSTANT, input for Fixed Minimum Air Flow Rate will be ignored.\n   **   ~~~   ** Occurs in AirTerminal:SingleDuct:VAV:NoReheat = ZONE - STORAGE214 AIR TERMINAL\n   ** Warning ** AirConditioner:VariableRefrigerantFlow = \"2 ZONE VRF SYSTEM\", Maximum Outdoor Temperature in Heat Recovery Mode is greater than the maximum temperature in heat pump mode.\n   **   ~~~   ** ...Maximum Outdoor Temperature in Heat Recovery Mode = 27.20 C\n   **   ~~~   ** ...Maximum Outdoor Temperature in Cooling Mode = 50.00 C\n   **   ~~~   ** ...Maximum Outdoor Temperature in Heating Mode = 16.10 C\n   **   ~~~   ** ...Maximum Outdoor Temperature in Heat Recovery Mode reset to lesser of cooling or heating minimum temperature and simulation continues.\n   **   ~~~   ** ... adjusted Maximum Outdoor Temperature in Heat Recovery Mode = 16.10 C\n   ** Warning ** AirConditioner:VariableRefrigerantFlow = \"38 ZONE VRF SYSTEM\", Maximum Outdoor Temperature in Heat Recovery Mode is greater than the maximum temperature in heat pump mode.\n   **   ~~~   ** ...Maximum Outdoor Temperature in Heat Recovery Mode = 27.20 C\n   **   ~~~   ** ...Maximum Outdoor Temperature in Cooling Mode = 50.00 C\n   **   ~~~   ** ...Maximum Outdoor Temperature in Heating Mode = 16.10 C\n   **   ~~~   ** ...Maximum Outdoor Temperature in Heat Recovery Mode reset to lesser of cooling or heating minimum temperature and simulation continues.\n   **   ~~~   ** ... adjusted Maximum Outdoor Temperature in Heat Recovery Mode = 16.10 C\n   ** Warning ** GetDXCoils: Coil:Heating:DX:SingleSpeed=\"2 ZONE DOAS HTG COIL 3 CLG KBTU/HR 3.3COPH\", invalid\n   **   ~~~   ** ...Part Load Fraction Correlation Curve Name = DXHEAT-NECB2011-REF-PLFFPLR has out of range value.\n   **   ~~~   ** ...Curve maximum must be <= 1.0, curve max at PLR = 0.99 is 1.005\n   **   ~~~   ** ...Setting curve maximum to 1.0 and simulation continues.\n   ** Warning ** GetDXCoils: Coil:Heating:DX:SingleSpeed=\"2 ZONE DOAS HTG COIL 3 CLG KBTU/HR 3.3COPH\" curve values\n   **   ~~~   ** ... Defrost Energy Input Ratio Function of Temperature Curve Name = 2 ZONE DOAS HTG COIL DEFROST EIR FUNC OF TEMP CURVE output is not equal to 1.0 (+ or - 10%) at rated conditions.\n   **   ~~~   ** ... Curve output at rated conditions = 0.787\n   ** Warning ** GetDXCoils: Coil:Heating:DX:SingleSpeed=\"38 ZONE DOAS HTG COIL 59 CLG KBTU/HR 3.3COPH\" curve values\n   **   ~~~   ** ... Defrost Energy Input Ratio Function of Temperature Curve Name = 38 ZONE DOAS HTG COIL DEFROST EIR FUNC OF TEMP CURVE output is not equal to 1.0 (+ or - 10%) at rated conditions.\n   **   ~~~   ** ... Curve output at rated conditions = 0.787\n   ** Warning ** GetDXCoils: Coil:Cooling:DX:TwoSpeed=\"2 ZONE DOAS 2SPD DX CLG COIL 3KBTU/HR 11.2EER\", invalid\n   **   ~~~   ** ...Part Load Fraction Correlation Curve Name = COILCLGDXEIRRATIO_FQFRAC has out of range value.\n   **   ~~~   ** ...Curve maximum must be <= 1.0, curve max at PLR = 0.99 is 1.018\n   **   ~~~   ** ...Setting curve maximum to 1.0 and simulation continues.\n   ************* Beginning Plant Sizing Calculations\n   ** Warning ** Controller:MechanicalVentilation=\"38 ZONE DOAS MECHANICAL VENTILATION CONTROLLER\", Zone OA/person rate\n   **   ~~~   ** For Zone=\"ZONE - CORRIDOR111\".\n   **   ~~~   ** Zone outside air per person rate not set in Design Specification Outdoor Air Object=\"CORRIDOR OUTDOOR AIR 1\".\n   ** Warning ** Controller:MechanicalVentilation=\"38 ZONE DOAS MECHANICAL VENTILATION CONTROLLER\", Zone OA/person rate\n   **   ~~~   ** For Zone=\"ZONE - CORRIDOR119\".\n   **   ~~~   ** Zone outside air per person rate not set in Design Specification Outdoor Air Object=\"CORRIDOR OUTDOOR AIR 1\".\n   ** Warning ** Controller:MechanicalVentilation=\"38 ZONE DOAS MECHANICAL VENTILATION CONTROLLER\", Zone OA/person rate\n   **   ~~~   ** For Zone=\"ZONE - CORRIDOR209\".\n   **   ~~~   ** Zone outside air per person rate not set in Design Specification Outdoor Air Object=\"CORRIDOR OUTDOOR AIR 1\".\n   ** Warning ** Controller:MechanicalVentilation=\"38 ZONE DOAS MECHANICAL VENTILATION CONTROLLER\", Zone OA/person rate\n   **   ~~~   ** For Zone=\"ZONE - CORRIDOR217\".\n   **   ~~~   ** Zone outside air per person rate not set in Design Specification Outdoor Air Object=\"CORRIDOR OUTDOOR AIR 1\".\n   ** Warning ** AirConditioner:VariableRefrigerantFlow \"38 ZONE VRF SYSTEM\".\n   **   ~~~   ** ...InitVRF: VRF Heat Pump Min/Max Operating Temperature in Cooling Mode Limits have been exceeded and VRF system is disabled.\n   **   ~~~   ** ... Outdoor Unit Inlet Air Temperature                 = -17.900\n   **   ~~~   ** ... Cooling Minimum Outdoor Unit Inlet Temperature = -15.000\n   **   ~~~   ** ... Cooling Maximum Outdoor Unit Inlet Temperature = 50.000\n   **   ~~~   ** ... Check VRF Heat Pump Min/Max Outdoor Temperature in Cooling Mode limits.\n   **   ~~~   **  During Warmup, Environment=AURORA BUCKLEY FIELD ANGB ANN HTG 99.6% CONDNS DB, at Simulation time=12/21 00:00 - 00:15\n   ** Warning ** AirConditioner:VariableRefrigerantFlow \"2 ZONE VRF SYSTEM\".\n   **   ~~~   ** ...InitVRF: VRF Heat Pump Min/Max Operating Temperature in Cooling Mode Limits have been exceeded and VRF system is disabled.\n   **   ~~~   ** ... Outdoor Unit Inlet Air Temperature                 = -17.900\n   **   ~~~   ** ... Cooling Minimum Outdoor Unit Inlet Temperature = -15.000\n   **   ~~~   ** ... Cooling Maximum Outdoor Unit Inlet Temperature = 50.000\n   **   ~~~   ** ... Check VRF Heat Pump Min/Max Outdoor Temperature in Cooling Mode limits.\n   **   ~~~   **  During Warmup, Environment=AURORA BUCKLEY FIELD ANGB ANN HTG 99.6% CONDNS DB, at Simulation time=12/21 00:00 - 00:15\n   ** Warning ** Coil:Heating:DX:SingleSpeed \"2 ZONE DOAS HTG COIL 3 CLG KBTU/HR 3.3COPH\" - Air volume flow rate per watt of rated total heating capacity is out of range at 1.518E-005 m3/s/W.\n   **   ~~~   **  During Warmup, Environment=RUN PERIOD 1, at Simulation time=01/01 00:00 - 00:15\n   **   ~~~   ** Expected range for VolumeFlowPerRatedTotalCapacity=[2.684E-005--8.056E-005]\n   **   ~~~   ** Possible causes include inconsistent air flow rates in system components or\n   **   ~~~   ** inconsistent supply air fan operation modes in coil and unitary system objects.\n   ** Warning ** Output:Meter: invalid Key Name=\"DISTRICTCOOLING:FACILITY\" - not found.\n   ** Warning ** Output:Meter: invalid Key Name=\"DISTRICTHEATING:FACILITY\" - not found.\n   ** Warning ** Output:Meter:MeterFileOnly requested for \"Electricity:Facility\" (TimeStep), already on \"Output:Meter\". Will report to both eplusout.eso and eplusout.mtr\n   ************* Testing Individual Branch Integrity\n   ************* All Branches passed integrity testing\n   ************* Testing Individual Supply Air Path Integrity\n   ************* All Supply Air Paths passed integrity testing\n   ************* Testing Individual Return Air Path Integrity\n   ************* All Return Air Paths passed integrity testing\n   ************* No node connection errors were found.\n   ************* Beginning Simulation\n   ** Warning ** HeatExchanger:AirToAir:SensibleAndLatent \"2 ZONE DOAS HEAT EXCHANGER\"\n   **   ~~~   ** Average air volume flow rate is <50% or >130% of the nominal HX supply air volume flow rate.\n   **   ~~~   ** Air volume flow rate ratio = 0.326. Environment=RUN PERIOD 1, at Simulation time=01/01 00:00 - 00:15\n   ** Warning ** Processing Monthly Tabular Reports: Variable names not valid for this simulation\n   **   ~~~   ** ...use Output:Diagnostics,DisplayExtraWarnings; to show more details on individual variables.\n   ** Warning ** GetInputEconomicsTariff: UtilityCost:Tariff=\"DISTRICTHEATING TARIFF\" missing meter\n   **   ~~~   ** Meter referenced is not present due to a lack of equipment that uses that energy source/meter:\"DISTRICTHEATING:FACILITY\".\n   ** Warning ** GetInputEconomicsTariff: UtilityCost:Tariff=\"DISTRICTCOOLING TARIFF\" missing meter\n   **   ~~~   ** Meter referenced is not present due to a lack of equipment that uses that energy source/meter:\"DISTRICTCOOLING:FACILITY\".\n   ** Warning ** Coil:Heating:DX:SingleSpeed \"38 ZONE DOAS HTG COIL 59 CLG KBTU/HR 3.3COPH\" - Air volume flow rate per watt of rated total heating capacity is out of range at 2.623E-005 m3/s/W.\n   **   ~~~   **  Environment=RUN PERIOD 1, at Simulation time=01/02 05:00 - 05:15\n   **   ~~~   ** Expected range for VolumeFlowPerRatedTotalCapacity=[2.684E-005--8.056E-005]\n   **   ~~~   ** Possible causes include inconsistent air flow rates in system components or\n   **   ~~~   ** inconsistent supply air fan operation modes in coil and unitary system objects.\n   ** Warning ** AirConditioner:VariableRefrigerantFlow \"38 ZONE VRF SYSTEM\".\n   **   ~~~   ** ...InitVRF: VRF Heat Pump Min/Max Outdoor Temperature in Heat Recovery Mode Limits have been exceeded and VRF heat recovery is disabled.\n   **   ~~~   ** ... Outdoor Dry-Bulb Temperature                       = -10.500\n   **   ~~~   ** ... Heat Recovery Minimum Outdoor Dry-Bulb Temperature = -10.000\n   **   ~~~   ** ... Heat Recovery Maximum Outdoor Dry-Bulb Temperature = 16.100\n   **   ~~~   ** ... Check VRF Heat Pump Min/Max Outdoor Temperature in Heat Recovery Mode limits.\n   **   ~~~   **  Environment=RUN PERIOD 1, at Simulation time=01/04 17:38 - 17:45\n   **   ~~~   ** ...the system will operate in heat pump mode when applicable.\n   ** Warning ** AirConditioner:VariableRefrigerantFlow \"2 ZONE VRF SYSTEM\".\n   **   ~~~   ** ...InitVRF: VRF Heat Pump Min/Max Outdoor Temperature in Heat Recovery Mode Limits have been exceeded and VRF heat recovery is disabled.\n   **   ~~~   ** ... Outdoor Dry-Bulb Temperature                       = -10.500\n   **   ~~~   ** ... Heat Recovery Minimum Outdoor Dry-Bulb Temperature = -10.000\n   **   ~~~   ** ... Heat Recovery Maximum Outdoor Dry-Bulb Temperature = 16.100\n   **   ~~~   ** ... Check VRF Heat Pump Min/Max Outdoor Temperature in Heat Recovery Mode limits.\n   **   ~~~   **  Environment=RUN PERIOD 1, at Simulation time=01/07 07:00 - 07:15\n   **   ~~~   ** ...the system will operate in heat pump mode when applicable.\n   ** Warning ** AirConditioner:VariableRefrigerantFlow \"2 ZONE VRF SYSTEM\".\n   **   ~~~   ** ...InitVRF: VRF Heat Pump Min/Max Operating Temperature in Heating Mode Limits have been exceeded and VRF system is disabled.\n   **   ~~~   ** ... Outdoor Unit Inlet Air Temperature             = 16.500\n   **   ~~~   ** ... Heating Minimum Outdoor Unit Inlet Temperature = -25.000\n   **   ~~~   ** ... Heating Maximum Outdoor Unit Inlet Temperature = 16.100\n   **   ~~~   ** ... Check VRF Heat Pump Min/Max Outdoor Temperature in Heating Mode limits.\n   **   ~~~   **  Environment=RUN PERIOD 1, at Simulation time=02/18 10:30 - 10:45\n   ** Warning ** AirConditioner:VariableRefrigerantFlow \"38 ZONE VRF SYSTEM\".\n   **   ~~~   ** ...InitVRF: VRF Heat Pump Min/Max Operating Temperature in Heating Mode Limits have been exceeded and VRF system is disabled.\n   **   ~~~   ** ... Outdoor Unit Inlet Air Temperature             = 16.125\n   **   ~~~   ** ... Heating Minimum Outdoor Unit Inlet Temperature = -25.000\n   **   ~~~   ** ... Heating Maximum Outdoor Unit Inlet Temperature = 16.100\n   **   ~~~   ** ... Check VRF Heat Pump Min/Max Outdoor Temperature in Heating Mode limits.\n   **   ~~~   **  Environment=RUN PERIOD 1, at Simulation time=05/06 07:05 - 07:10\n   ** Warning ** The resource referenced by LifeCycleCost:UsePriceEscalation= \"U.S. AVG  COMMERCIAL-ELECTRICITY\" has no energy cost. \n   **   ~~~   ** ... It is likely that the wrong resource is used. The resource should match the meter used in Utility:Tariff.\n   ** Warning ** The resource referenced by LifeCycleCost:UsePriceEscalation= \"U.S. AVG  COMMERCIAL-DISTILLATE OIL\" has no energy cost. \n   **   ~~~   ** ... It is likely that the wrong resource is used. The resource should match the meter used in Utility:Tariff.\n   ** Warning ** The resource referenced by LifeCycleCost:UsePriceEscalation= \"U.S. AVG  COMMERCIAL-RESIDUAL OIL\" has no energy cost. \n   **   ~~~   ** ... It is likely that the wrong resource is used. The resource should match the meter used in Utility:Tariff.\n   ** Warning ** The resource referenced by LifeCycleCost:UsePriceEscalation= \"U.S. AVG  COMMERCIAL-COAL\" has no energy cost. \n   **   ~~~   ** ... It is likely that the wrong resource is used. The resource should match the meter used in Utility:Tariff.\n   ************* Simulation Error Summary *************\n   ** Warning ** The following Report Variables were requested but not generated -- check.rdd file\n   **   ~~~   ** Either the IDF did not contain these elements, the variable name is misspelled,\n   **   ~~~   ** or the requested variable is an advanced output which requires Output : Diagnostics, DisplayAdvancedReportVariables;\n   ************* Key=*, VarName=CHILLER PART LOAD RATIO, Frequency=Hourly\n   ************* Key=*, VarName=CHILLER COP, Frequency=Hourly\n   ************* Key=*, VarName=GAS EQUIPMENT TOTAL HEATING ENERGY, Frequency=Monthly\n   ************* There are 9 unused objects in input.\n   ************* Use Output:Diagnostics,DisplayUnusedObjects; to see them.\n   ************* There are 32 unused schedules in input.\n   ************* There are 53 unused week schedules in input.\n   ************* There are 210 unused day schedules in input.\n   ************* Use Output:Diagnostics,DisplayUnusedSchedules; to see them.\n   *************\n   ************* ===== Recurring Error Summary =====\n   ************* The following recurring error messages occurred.\n   *************\n   *************  ** Warning ** AirConditioner:VariableRefrigerantFlow \"38 ZONE VRF SYSTEM\" -- Exceeded VRF Heat Pump min/max cooling temperature limit error continues...\n   *************  **   ~~~   **   This error occurred 1 total times;\n   *************  **   ~~~   **   during Warmup 1 times;\n   *************  **   ~~~   **   during Sizing 0 times.\n   *************  **   ~~~   **   Max=-17.9  Min=-17.9\n   *************\n   *************  ** Warning ** AirConditioner:VariableRefrigerantFlow \"2 ZONE VRF SYSTEM\" -- Exceeded VRF Heat Pump min/max cooling temperature limit error continues...\n   *************  **   ~~~   **   This error occurred 1284 total times;\n   *************  **   ~~~   **   during Warmup 2 times;\n   *************  **   ~~~   **   during Sizing 0 times.\n   *************  **   ~~~   **   Max=-15.25  Min=-22.225\n   *************\n   *************  ** Warning ** Coil:Heating:DX:SingleSpeed \"2 ZONE DOAS HTG COIL 3 CLG KBTU/HR 3.3COPH\" - Air volume flow rate per watt of rated total heating capacity is out of range error continues...\n   *************  **   ~~~   **   This error occurred 114960 total times;\n   *************  **   ~~~   **   during Warmup 4808 times;\n   *************  **   ~~~   **   during Sizing 0 times.\n   *************  **   ~~~   **   Max=2.683423E-005  Min=1.469321E-005\n   *************\n   *************  ** Warning ** HeatExchanger:AirToAir:SensibleAndLatent \"2 ZONE DOAS HEAT EXCHANGER\":  Average air volume flow rate is <50% or >130% warning continues. Air flow rate ratio statistics follow.\n   *************  **   ~~~   **   This error occurred 127880 total times;\n   *************  **   ~~~   **   during Warmup 0 times;\n   *************  **   ~~~   **   during Sizing 0 times.\n   *************  **   ~~~   **   Max=0.499896  Min=0.31714\n   *************\n   *************  ** Warning ** Coil:Heating:DX:SingleSpeed \"38 ZONE DOAS HTG COIL 59 CLG KBTU/HR 3.3COPH\" - Air volume flow rate per watt of rated total heating capacity is out of range error continues...\n   *************  **   ~~~   **   This error occurred 2584 total times;\n   *************  **   ~~~   **   during Warmup 0 times;\n   *************  **   ~~~   **   during Sizing 0 times.\n   *************  **   ~~~   **   Max=2.683833E-005  Min=2.580043E-005\n   *************\n   *************  ** Warning ** AirConditioner:VariableRefrigerantFlow \"38 ZONE VRF SYSTEM\" -- Exceeded VRF Heat Recovery min/max outdoor temperature limit error continues...\n   *************  **   ~~~   **   This error occurred 13779 total times;\n   *************  **   ~~~   **   during Warmup 0 times;\n   *************  **   ~~~   **   during Sizing 0 times.\n   *************  **   ~~~   **   Max=22.25  Min=-20.75\n   *************\n   *************  ** Warning ** AirConditioner:VariableRefrigerantFlow \"2 ZONE VRF SYSTEM\" -- Exceeded VRF Heat Recovery min/max outdoor temperature limit error continues...\n   *************  **   ~~~   **   This error occurred 12 total times;\n   *************  **   ~~~   **   during Warmup 0 times;\n   *************  **   ~~~   **   during Sizing 0 times.\n   *************  **   ~~~   **   Max=-10.15  Min=-14.\n   *************\n   *************  ** Warning ** AirConditioner:VariableRefrigerantFlow \"2 ZONE VRF SYSTEM\" -- Exceeded VRF Heat Pump min/max heating temperature limit error continues...\n   *************  **   ~~~   **   This error occurred 14564 total times;\n   *************  **   ~~~   **   during Warmup 0 times;\n   *************  **   ~~~   **   during Sizing 0 times.\n   *************  **   ~~~   **   Max=36.5  Min=16.125\n   *************\n   *************  ** Warning ** AirConditioner:VariableRefrigerantFlow \"38 ZONE VRF SYSTEM\" -- Exceeded VRF Heat Pump min/max heating temperature limit error continues...\n   *************  **   ~~~   **   This error occurred 21 total times;\n   *************  **   ~~~   **   during Warmup 0 times;\n   *************  **   ~~~   **   during Sizing 0 times.\n   *************  **   ~~~   **   Max=24.  Min=16.125\n   *************\n   *************\n   ************* ===== Final Error Summary =====\n   ************* The following error categories occurred.  Consider correcting or noting.\n   ************* Nominally Unused Constructions\n   ************* ..The nominally unused constructions warning is provided to alert you to potential conditions that can cause\n   ************* ..extra time during simulation. Each construction is calculated by the algorithm indicated in the HeatBalanceAlgorithm\n   ************* ..object. You may remove the constructions indicated (when you use the DisplayExtraWarnings option).\n   *************\n   ************* EnergyPlus Warmup Error Summary. During Warmup: 0 Warning; 0 Severe Errors.\n   ************* EnergyPlus Sizing Error Summary. During Sizing: 147 Warning; 0 Severe Errors.\n   ************* EnergyPlus Completed Successfully-- 275248 Warning; 0 Severe Errors; Elapsed Time=00hr 02min 40.61sec\n",
  "file_format_version": "0.0.1",
  "file_paths": [
    "../weather",
    "../seeds",
    "../seed"
  ],
  "hash": "C2FF2B3C",
  "measure_paths": [
    "../measures"
  ],
  "name": "Low Energy Duplicate 1",
  "osa_id": "93a201b4-a284-4ee3-a5d4-0bd0a7fc7e80",
  "osd_id": "29dba165-e422-4d88-8891-c77852b8634d",
  "run_directory": "./run",
  "seed_file": "SDDC Office Example seed.osm",
  "started_at": "20181105T192522Z",
  "steps": [
    {
      "arguments": {
        "climate_zone": "Lookup From Stat File",
        "set_year": 0,
        "use_upstream_args": false,
        "weather_file_name": "USA_CO_Aurora-Buckley.Field.ANGB.724695_TMY3.epw"
      },
      "description": "Option 11 Description: Change the building location",
      "measure_dir_name": "ChangeBuildingLocation",
      "name": "Aurora",
      "result": {
        "completed_at": "20181105T192523Z",
        "measure_class_name": "ChangeBuildingLocation",
        "measure_display_name": "ChangeBuildingLocation",
        "measure_name": "change_building_location",
        "measure_taxonomy": "Whole Building.Space Types",
        "measure_type": "ModelMeasure",
        "measure_uid": "d4db4971-f5ba-11e3-a3ac-0800200c9a66",
        "measure_version_id": "aa6af1cd-6cce-4352-bddd-e4cf47d79b35",
        "measure_version_modified": "20181101T151202Z",
        "measure_xml_checksum": "057E8D9D",
        "started_at": "20181105T192522Z",
        "stderr": "",
        "stdout": "[openstudio.setFileExtension] <0> Path p, '/Users/dgoldwas/Documents/GitHub/Personal/PAT_projects/PAT_RaceToZero_Office/temp_data/analysis_93a201b4-a284-4ee3-a5d4-0bd0a7fc7e80/weather/USA_CO_Aurora-Buckley.Field.ANGB.724695_TMY3.ddy', has an unexpected file extension. Was expecting 'idf'.\n[openstudio.model.YearDescription] <1> 'UseWeatherFile' is not yet a supported option for YearDescription\n[openstudio.model.YearDescription] <1> 'UseWeatherFile' is not yet a supported option for YearDescription\n",
        "step_errors": [],
        "step_files": [],
        "step_final_condition": "The final weather file is Aurora Buckley Field Angb and the model has 3 design day objects.",
        "step_info": [
          "city is Aurora Buckley Field Angb. State is CO",
          "mean dry bulb is 9.95",
          "Adding object Aurora Buckley Field Angb Ann Clg .4% Condns WB=>MDB",
          "Adding object Aurora Buckley Field Angb Ann Clg .4% Condns DB=>MWB",
          "Adding object Aurora Buckley Field Angb Ann Htg 99.6% Condns DB",
          "Setting Climate Zone to 5B"
        ],
        "step_initial_condition": "The initial weather file is Fairbanks Intl Arpt and the model has 7 design day objects",
        "step_result": "Success",
        "step_values": [
          {
            "name": "weather_file_name",
            "value": "USA_CO_Aurora-Buckley.Field.ANGB.724695_TMY3.epw"
          },
          {
            "name": "climate_zone",
            "value": "Lookup From Stat File"
          },
          {
            "name": "set_year",
            "value": 0
          },
          {
            "name": "use_upstream_args",
            "value": false
          }
        ],
        "step_warnings": []
      }
    },
    {
      "arguments": {},
      "description": "Option 1 Description: If any spaces are not part of a thermal zone, then this measure will create a new thermal zone and assign it to the space.",
      "measure_dir_name": "create_and_assign_thermal_zones_for_unassigned_spaces",
      "name": "Create Zones",
      "result": {
        "completed_at": "20181105T192523Z",
        "measure_class_name": "CreateAndAssignThermalZonesForUnassignedSpaces",
        "measure_display_name": "Create and Assign Thermal Zones for Unassigned Spaces",
        "measure_name": "create_and_assign_thermal_zones_for_unassigned_spaces",
        "measure_taxonomy": "Envelope.Form",
        "measure_type": "ModelMeasure",
        "measure_uid": "ddaa752e-5d40-49b2-88de-62e71697e614",
        "measure_version_id": "627391f5-aca3-422d-9b65-432f92925668",
        "measure_version_modified": "20171027T173144Z",
        "measure_xml_checksum": "2AF3A68E",
        "started_at": "20181105T192523Z",
        "stderr": "",
        "stdout": "[OpenStudio.Measure] <0> OSArgumentVector is deprecated, use OpenStudio::Measure::OSArgumentVector instead.\n",
        "step_errors": [],
        "step_files": [],
        "step_final_condition": "The building finished with 40 thermal zones.",
        "step_info": [
          "Assigning Conference103 to new thermal zone named Zone - Conference103",
          "Assigning Conference107 to new thermal zone named Zone - Conference107",
          "Assigning Conference202 to new thermal zone named Zone - Conference202",
          "Assigning Conference205 to new thermal zone named Zone - Conference205",
          "Assigning Corridor111 to new thermal zone named Zone - Corridor111",
          "Assigning Corridor119 to new thermal zone named Zone - Corridor119",
          "Assigning Corridor209 to new thermal zone named Zone - Corridor209",
          "Assigning Corridor217 to new thermal zone named Zone - Corridor217",
          "Assigning Data113 to new thermal zone named Zone - Data113",
          "Assigning Data211 to new thermal zone named Zone - Data211",
          "Assigning Elevator115 to new thermal zone named Zone - Elevator115",
          "Assigning Elevator213 to new thermal zone named Zone - Elevator213",
          "Assigning Lobby102 to new thermal zone named Zone - Lobby102",
          "Assigning Lobby106 to new thermal zone named Zone - Lobby106",
          "Assigning Lounge112 to new thermal zone named Zone - Lounge112",
          "Assigning Lounge210 to new thermal zone named Zone - Lounge210",
          "Assigning MEEL117 to new thermal zone named Zone - MEEL117",
          "Assigning MEEL215 to new thermal zone named Zone - MEEL215",
          "Assigning OpenOffice104 to new thermal zone named Zone - OpenOffice104",
          "Assigning OpenOffice108 to new thermal zone named Zone - OpenOffice108",
          "Assigning OpenOffice110 to new thermal zone named Zone - OpenOffice110",
          "Assigning OpenOffice120 to new thermal zone named Zone - OpenOffice120",
          "Assigning OpenOffice201 to new thermal zone named Zone - OpenOffice201",
          "Assigning OpenOffice204 to new thermal zone named Zone - OpenOffice204",
          "Assigning OpenOffice207 to new thermal zone named Zone - OpenOffice207",
          "Assigning OpenOffice219 to new thermal zone named Zone - OpenOffice219",
          "Assigning PrivateOffice101 to new thermal zone named Zone - PrivateOffice101",
          "Assigning PrivateOffice105 to new thermal zone named Zone - PrivateOffice105",
          "Assigning PrivateOffice109 to new thermal zone named Zone - PrivateOffice109",
          "Assigning PrivateOffice121 to new thermal zone named Zone - PrivateOffice121",
          "Assigning PrivateOffice203 to new thermal zone named Zone - PrivateOffice203",
          "Assigning PrivateOffice206 to new thermal zone named Zone - PrivateOffice206",
          "Assigning PrivateOffice208 to new thermal zone named Zone - PrivateOffice208",
          "Assigning PrivateOffice218 to new thermal zone named Zone - PrivateOffice218",
          "Assigning Restrooms114 to new thermal zone named Zone - Restrooms114",
          "Assigning Restrooms212 to new thermal zone named Zone - Restrooms212",
          "Assigning Stairs118 to new thermal zone named Zone - Stairs118",
          "Assigning Stairs216 to new thermal zone named Zone - Stairs216",
          "Assigning Storage116 to new thermal zone named Zone - Storage116",
          "Assigning Storage214 to new thermal zone named Zone - Storage214"
        ],
        "step_initial_condition": "The building started with 0 thermal zones.",
        "step_result": "Success",
        "step_values": [],
        "step_warnings": []
      }
    },
    {
      "arguments": {
        "intersect_surfaces": true,
        "match_surfaces": true,
        "remove_collinear_vertices": true,
        "remove_duplicate_surfaces": true,
        "remove_duplicate_vertices": true
      },
      "description": "Option 1 Description: This will look for surfaces in adjacent spaces with similar geometry and create thermal connections between them.",
      "measure_dir_name": "surface_matching_diagnostic",
      "name": "Surface Matching Diagnostic",
      "result": {
        "completed_at": "20181105T192525Z",
        "measure_class_name": "SurfaceMatchingDiagnostic",
        "measure_display_name": "Surface Matching Diagnostic",
        "measure_name": "surface_matching_diagnostic",
        "measure_taxonomy": "Envelope.Form",
        "measure_type": "ModelMeasure",
        "measure_uid": "ffb0d487-eb1c-4ca4-b008-4fbb7bf511b2",
        "measure_version_id": "c9429b88-6fba-4b18-8f2e-176a3648b6bf",
        "measure_version_modified": "20180501T192448Z",
        "measure_xml_checksum": "4AA895E2",
        "started_at": "20181105T192523Z",
        "stderr": "",
        "stdout": "[openstudio.model.PlanarSurface] <-2> Before setVertices have 26 fields.\n[openstudio.model.PlanarSurface] <-2> After clearExtensibleGroups in setVertices have 11 fields.\n[openstudio.model.PlanarSurface] <-2> After setVertices have 23 fields.  Size of vertices is 4.\n",
        "step_errors": [],
        "step_files": [],
        "step_final_condition": "The final model has 242 matched surfaces.",
        "step_info": [
          "Intersecting and matching surfaces for Conference103.",
          "Intersecting and matching surfaces for Conference107.",
          "Intersecting and matching surfaces for Conference202.",
          "Intersecting and matching surfaces for Conference205.",
          "Intersecting and matching surfaces for Corridor111.",
          "Intersecting and matching surfaces for Corridor119.",
          "Intersecting and matching surfaces for Corridor209.",
          "Intersecting and matching surfaces for Corridor217.",
          "Intersecting and matching surfaces for Data113.",
          "Intersecting and matching surfaces for Data211.",
          "Intersecting and matching surfaces for Elevator115.",
          "Intersecting and matching surfaces for Elevator213.",
          "Intersecting and matching surfaces for Lobby102.",
          "Intersecting and matching surfaces for Lobby106.",
          "Intersecting and matching surfaces for Lounge112.",
          "Intersecting and matching surfaces for Lounge210.",
          "Intersecting and matching surfaces for MEEL117.",
          "Intersecting and matching surfaces for MEEL215.",
          "Intersecting and matching surfaces for OpenOffice104.",
          "Intersecting and matching surfaces for OpenOffice108.",
          "Intersecting and matching surfaces for OpenOffice110.",
          "Intersecting and matching surfaces for OpenOffice120.",
          "Intersecting and matching surfaces for OpenOffice201.",
          "Intersecting and matching surfaces for OpenOffice204.",
          "Intersecting and matching surfaces for OpenOffice207.",
          "Intersecting and matching surfaces for OpenOffice219.",
          "Intersecting and matching surfaces for PrivateOffice101.",
          "Intersecting and matching surfaces for PrivateOffice105.",
          "Intersecting and matching surfaces for PrivateOffice109.",
          "Intersecting and matching surfaces for PrivateOffice121.",
          "Intersecting and matching surfaces for PrivateOffice203.",
          "Intersecting and matching surfaces for PrivateOffice206.",
          "Intersecting and matching surfaces for PrivateOffice208.",
          "Intersecting and matching surfaces for PrivateOffice218.",
          "Intersecting and matching surfaces for Restrooms114.",
          "Intersecting and matching surfaces for Restrooms212.",
          "Intersecting and matching surfaces for Stairs118.",
          "Intersecting and matching surfaces for Stairs216.",
          "Intersecting and matching surfaces for Storage116.",
          "Intersecting and matching surfaces for Storage214."
        ],
        "step_initial_condition": "The initial model has 242 matched surfaces.",
        "step_result": "Success",
        "step_values": [],
        "step_warnings": [
          "Removing 1 collinear vertices from Surface 223."
        ]
      }
    },
    {
      "arguments": {
        "__SKIP__": false,
        "infiltration_ip": 0.05,
        "material_cost_ip": 0,
        "om_cost_ip": 0,
        "om_frequency": 1
      },
      "description": "Option 1 Description: Replace all Space Infiltration objects with a new one that has a prescribed flow rate per exterior surface area.  There are many strategies that can be used to reduce infiltration.\r\r\r\r\r\r\n\r\r\r\r\r\r\nSeal Windows ? Seal all windows and doors with weather strip and fill any air gaps with insulation and caulking to prevent air infiltration.\r\r\r\r\r\r\n\r\r\r\r\r\r\nInstall Revolving Doors on the Inner Door Entrance - Replace the high traffic entrance doors with revolving doors.  This will reduce the air infiltration associated with the doors.  Notice that loading dock doors and handicapped accessible entrances cannot be replaced with revolving doors.\r\r\r\r\r\r\n\r\r\r\r\r\r\nInstall an Air Curtain for the Loading Dock Door - An air curtain should be installed in the entryway of loading dock doors.  This will greatly reduce outside air from infiltrating during periods of time when loading dock doors are open.\r\r\r\r\r\r\n\r\r\r\r\r\r\nIdentify and seal other sources of infiltration ? Look for other uncontrolled infiltration sources and work to air seal.  These could be former electrical chases, abandoned HVAC ducting, general envelope deterioration, or many other sources.\r\r\r\r\r\r\n  ",
      "measure_dir_name": "SetSpaceInfiltrationByExteriorSurfaceArea",
      "name": "Infiltration",
      "result": {
        "completed_at": "20181105T192525Z",
        "measure_class_name": "SetSpaceInfiltrationByExteriorSurfaceArea",
        "measure_display_name": "Set Space Infiltration by Exterior Surface Area",
        "measure_name": "set_space_infiltration_by_exterior_surface_area",
        "measure_taxonomy": "Envelope.Infiltration",
        "measure_type": "ModelMeasure",
        "measure_uid": "9d7b0789-3974-4869-a2a8-055391857e3c",
        "measure_version_id": "82c6f476-5d3f-412b-9780-e0009c9ab363",
        "measure_version_modified": "20180626T202333Z",
        "measure_xml_checksum": "E88CCCA7",
        "started_at": "20181105T192525Z",
        "stderr": "",
        "stdout": "",
        "step_errors": [],
        "step_files": [],
        "step_final_condition": "The final model has an infiltration rate of 0.05 (cfm/ft^2). The material and installation cost increase resulting from this measure is $0.00 ($/ft^2) over 19,840 (ft^2) of exterior envelope.",
        "step_info": [
          "13 infiltration objects were removed.",
          "Adding a building default space type to hold space infiltration for spaces that previously didn't have a space type.",
          "Cost arguments were not provided, no cost objects were added to the model."
        ],
        "step_initial_condition": "The initial model contained 13 space infiltration objects.",
        "step_result": "Success",
        "step_values": [
          {
            "name": "infiltration_ip",
            "value": 0.05
          },
          {
            "name": "material_cost_ip",
            "value": 0
          },
          {
            "name": "om_cost_ip",
            "value": 0
          },
          {
            "name": "om_frequency",
            "value": 1
          }
        ],
        "step_warnings": []
      }
    },
    {
      "arguments": {
        "material_cost_ip": 0
      },
      "description": "Option 1 Description: This measure removes all existing electric equipment from spaces recognized as office building space types. New electric objects will be added based on the 50% Small to Medium Office AEDG recommendations.",
      "measure_dir_name": "AedgSmallToMediumOfficeElectricEquipment",
      "name": "Elec Equip",
      "result": {
        "completed_at": "20181105T192525Z",
        "measure_class_name": "AedgSmallToMediumOfficeElectricEquipment",
        "measure_display_name": "AedgSmallToMediumOfficeElectricEquipment",
        "measure_name": "aedg_small_to_medium_office_electric_equipment",
        "measure_taxonomy": "Equipment.Electric Equipment",
        "measure_type": "ModelMeasure",
        "measure_uid": "2b50c112-4ee3-42b2-8c7f-d76d752cd0b4",
        "measure_version_id": "414c30cf-5523-4295-aaa7-d4c16a22a3dc",
        "measure_version_modified": "20180705T145958Z",
        "measure_xml_checksum": "126F1C43",
        "started_at": "20181105T192525Z",
        "stderr": "",
        "stdout": "",
        "step_errors": [],
        "step_files": [],
        "step_final_condition": "The resulting building has an EPD 0.6 (W/ft^2). Small and Medium Offices AEDG How to Implement Recommendations: PL1 Connected Wattage, PL2 Laptop Computers, PL4 Parasitic Loads, PL5 Printing Equipment, PL6 Unnecessary Equipment.",
        "step_info": [
          "Changing EPD of Mech and Elec space type to 0.1 (W/ft^2) from 0.8 (W/ft^2)",
          "Changing EPD of Restroom space type to 0.1 (W/ft^2) from 0.2 (W/ft^2)",
          "Changing EPD of Private Office space type to 0.6 (W/ft^2) from 1.1 (W/ft^2)",
          "Changing EPD of Lounge space type to 4.5 (W/ft^2) from 1.5 (W/ft^2)",
          "Couldn't map Elevator to a recognized space type used in the AEDG. Electric equipment levels for this SpaceType will not be altered.",
          "Changing EPD of Corridor space type to 0.2 (W/ft^2) from 0.2 (W/ft^2)",
          "Changing EPD of Data space type to 1.6 (W/ft^2) from 4.0 (W/ft^2)",
          "Changing EPD of Lobby space type to 0.1 (W/ft^2) from 0.5 (W/ft^2)",
          "Changing EPD of Stairway space type to 0.0 (W/ft^2) from 0.0 (W/ft^2)",
          "Changing EPD of Conference space type to 0.4 (W/ft^2) from 1.0 (W/ft^2)",
          "Changing EPD of Open Office space type to 0.7 (W/ft^2) from 1.1 (W/ft^2)",
          "Changing EPD of Storage space type to 0.0 (W/ft^2) from 0.2 (W/ft^2)"
        ],
        "step_initial_condition": "The building started with an EPD 0.9 (W/ft^2).",
        "step_result": "Success",
        "step_values": [
          {
            "name": "material_cost_ip",
            "value": 0
          }
        ],
        "step_warnings": []
      }
    },
    {
      "arguments": {
        "costTotal": 0
      },
      "description": "Option 1 Description: This measure reduces the values associated with electric equipment schedules to simulate reductions due to equipment controls throughout the building. This includes occupancy based outlets or adapters, as well as network or timer based controls.",
      "measure_dir_name": "AedgSmallToMediumOfficeElectricEquipmentControls",
      "name": "Equip Ctrl",
      "result": {
        "completed_at": "20181105T192525Z",
        "measure_class_name": "AedgSmallToMediumOfficeElectricEquipmentControls",
        "measure_display_name": "AedgSmallToMediumOfficeElectricEquipmentControls",
        "measure_name": "aedg_small_to_medium_office_electric_equipment_controls",
        "measure_taxonomy": "Equipment.Equipment Controls",
        "measure_type": "ModelMeasure",
        "measure_uid": "b297ea8a-d21f-416b-8b41-3dfc99b430cf",
        "measure_version_id": "01f87e1d-7578-44f9-819e-dff516edd3b4",
        "measure_version_modified": "20180705T164206Z",
        "measure_xml_checksum": "1F21832E",
        "started_at": "20181105T192525Z",
        "stderr": "",
        "stdout": "[utilities.idf.Workspace] <-1> Renamed Object of type 'OS:Schedule:Ruleset' and named '24 Hr Service Equipment' to '24 Hr Service Equipment 1' to avoid a name conflict upon WorkspaceObject addition.\n[utilities.idf.Workspace] <-1> Renamed Object of type 'OS:Schedule:Day' and named '24 Hr Service Equipment Default' to '24 Hr Service Equipment Default 1' to avoid a name conflict upon WorkspaceObject addition.\n[utilities.idf.Workspace] <-1> Renamed Object of type 'OS:Schedule:Day' and named '24 Hr Service Equipment Summer Design Day 3' to '24 Hr Service Equipment Summer Design Day 4' to avoid a name conflict upon WorkspaceObject addition.\n[utilities.idf.Workspace] <-1> Renamed Object of type 'OS:Schedule:Day' and named '24 Hr Service Equipment Winter Design Day 3' to '24 Hr Service Equipment Winter Design Day 4' to avoid a name conflict upon WorkspaceObject addition.\n[utilities.idf.Workspace] <-1> Renamed Object of type 'OS:Schedule:Rule' and named '24 Hr Service Equipment Sun Day Rule 1' to '24 Hr Service Equipment Sun Day Rule 2' to avoid a name conflict upon WorkspaceObject addition.\n[utilities.idf.Workspace] <-1> Renamed Object of type 'OS:Schedule:Day' and named '24 Hr Service Equipment Sun Day 1' to '24 Hr Service Equipment Sun Day 2' to avoid a name conflict upon WorkspaceObject addition.\n[utilities.idf.Workspace] <-1> Renamed Object of type 'OS:Schedule:Rule' and named '24 Hr Service Equipment Sat Day Rule 1' to '24 Hr Service Equipment Sat Day Rule 2' to avoid a name conflict upon WorkspaceObject addition.\n[utilities.idf.Workspace] <-1> Renamed Object of type 'OS:Schedule:Day' and named '24 Hr Service Equipment Sat Day 1' to '24 Hr Service Equipment Sat Day 2' to avoid a name conflict upon WorkspaceObject addition.\n[utilities.idf.Workspace] <-1> Renamed Object of type 'OS:Schedule:Ruleset' and named 'General Equipment' to 'General Equipment 1' to avoid a name conflict upon WorkspaceObject addition.\n[utilities.idf.Workspace] <-1> Renamed Object of type 'OS:Schedule:Day' and named 'General Equipment Default' to 'General Equipment Default 1' to avoid a name conflict upon WorkspaceObject addition.\n[utilities.idf.Workspace] <-1> Renamed Object of type 'OS:Schedule:Day' and named 'General Equipment Summer Design Day 3' to 'General Equipment Summer Design Day 4' to avoid a name conflict upon WorkspaceObject addition.\n[utilities.idf.Workspace] <-1> Renamed Object of type 'OS:Schedule:Day' and named 'General Equipment Winter Design Day 3' to 'General Equipment Winter Design Day 4' to avoid a name conflict upon WorkspaceObject addition.\n[utilities.idf.Workspace] <-1> Renamed Object of type 'OS:Schedule:Rule' and named 'General Equipment Sun Day Rule 1' to 'General Equipment Sun Day Rule 2' to avoid a name conflict upon WorkspaceObject addition.\n[utilities.idf.Workspace] <-1> Renamed Object of type 'OS:Schedule:Day' and named 'General Equipment Sun Day 1' to 'General Equipment Sun Day 2' to avoid a name conflict upon WorkspaceObject addition.\n[utilities.idf.Workspace] <-1> Renamed Object of type 'OS:Schedule:Rule' and named 'General Equipment Sat Day Rule 1' to 'General Equipment Sat Day Rule 2' to avoid a name conflict upon WorkspaceObject addition.\n[utilities.idf.Workspace] <-1> Renamed Object of type 'OS:Schedule:Day' and named 'General Equipment Sat Day 1' to 'General Equipment Sat Day 2' to avoid a name conflict upon WorkspaceObject addition.\n",
        "step_errors": [],
        "step_files": [],
        "step_final_condition": "Fractional schedule values for electric equipment in the final model range from 0.10 to 0.95. Small and Medium Offices AEDG How to Implement Recommendations: PL3 Occupancy Controls.",
        "step_info": [
          "Adjusting equipment schedules for Mech and Elec.",
          "Adjusting equipment schedules for Restroom.",
          "Adjusting equipment schedules for Private Office.",
          "Adjusting equipment schedules for Lounge.",
          "Adjusting equipment schedules for Elevator.",
          "Adjusting equipment schedules for Corridor.",
          "Adjusting equipment schedules for Data.",
          "Adjusting equipment schedules for Lobby.",
          "Adjusting equipment schedules for Stairway.",
          "Adjusting equipment schedules for Conference.",
          "Adjusting equipment schedules for Open Office.",
          "Adjusting equipment schedules for Storage."
        ],
        "step_initial_condition": "Fractional schedule values for electric equipment in the initial model range from 0.10 to 1.00.",
        "step_result": "Success",
        "step_values": [
          {
            "name": "costTotal",
            "value": 0
          }
        ],
        "step_warnings": []
      }
    },
    {
      "arguments": {
        "__SKIP__": true,
        "elec_equip_def": "Elevator Electric Equipment Definition",
        "multiplier": 2,
        "schedule": "24 Hr Service Equipment",
        "space": "Elevator115"
      },
      "description": "This measure allows you to create new electric equipment instance and assign it directly to a space in the model. It requires that the schedule and electric equipment definition already exist in the model. Additionally it has arguments for target space and multiplier",
      "measure_dir_name": "add_electric_equipment_instance_to_space",
      "name": "add_electric_equipment_instance_to_space",
      "result": {
        "completed_at": "20181105T192525Z",
        "measure_class_name": "AddElectricEquipmentInstanceToSpace",
        "measure_display_name": "Add Electric Equipment Instance to Space",
        "measure_name": "add_electric_equipment_instance_to_space",
        "measure_taxonomy": "Equipment.Electric Equipment",
        "measure_type": "ModelMeasure",
        "measure_uid": "d226e8df-700b-4c67-8816-ea0c53e7f6ab",
        "measure_version_id": "49cae5ce-ff94-4b9e-81ea-78d27bd10c5d",
        "measure_version_modified": "20180501T192444Z",
        "measure_xml_checksum": "0EED982D",
        "started_at": "20181105T192525Z",
        "stderr": "",
        "stdout": "",
        "step_errors": [],
        "step_files": [],
        "step_info": [],
        "step_result": "Skip",
        "step_values": [],
        "step_warnings": []
      }
    },
    {
      "arguments": {
        "material_cost_ip": 0
      },
      "description": "Option 1 Description: This measure removes all existing lighting objects from spaces recognized as primary or secondary school space types. New lighting will be added based on the 50% Small to Medium Office AEDG recommendations.",
      "measure_dir_name": "AedgSmallToMediumOfficeInteriorLighting",
      "name": "Int Lighting",
      "result": {
        "completed_at": "20181105T192525Z",
        "measure_class_name": "AedgSmallToMediumOfficeInteriorLighting",
        "measure_display_name": "AedgSmallToMediumOfficeInteriorLighting",
        "measure_name": "aedg_small_to_medium_office_interior_lighting",
        "measure_taxonomy": "Electric Lighting.Lighting Equipment",
        "measure_type": "ModelMeasure",
        "measure_uid": "e1e16b8f-5cbf-447c-9f76-7fe69b3cf01e",
        "measure_version_id": "323b8028-c6a4-4c40-b46a-16d7784749cc",
        "measure_version_modified": "20180705T145959Z",
        "measure_xml_checksum": "2DDDDD82",
        "started_at": "20181105T192525Z",
        "stderr": "",
        "stdout": "",
        "step_errors": [],
        "step_files": [],
        "step_final_condition": "The resulting building has an LPD 0.8 (W/ft^2). Small and Medium Offices AEDG How to Implement Recommendations: DL1 Daylighting Early in the Design Process, DL2 Daylighting Analysis Tools to Optimize Design, DL3 Space Types, Layout, and Daylight, DL4 Building Orientation and Daylight, DL5 Building Shape and Daylight, EL2 Space Planning-Open Offices, EL3 Space Planning-Private Offices, Conference Rooms, and Break Rooms, EL5 Task Lighting, EL6 Color Rendering Index (CRI), EL7 Color Temperature, EL8 Linear Fluorescent Lamps and Ballasts, EL12 Exit Signs, EL13 Light Fixture Distribution, EL14 Open-Plan Offices, EL15 Private Offices, EL16 Conference Rooms/Meeting Rooms, EL17 Corridors, EL18 Storage Areas, EL19 Lobbies, EL20 Twenty-Four Hour Lighting.",
        "step_info": [
          "Changing LPD of Mech and Elec space type to 1.2 (W/ft^2) from 0.4 (W/ft^2)",
          "Changing LPD of Restroom space type to 0.8 (W/ft^2) from 0.5 (W/ft^2)",
          "Changing LPD of Private Office space type to 0.9 (W/ft^2) from 0.4 (W/ft^2)",
          "Changing LPD of Lounge space type to 0.7 (W/ft^2) from 0.5 (W/ft^2)",
          "Couldn't map Elevator to a recognized space type used in the AEDG. Lighting levels for this SpaceType will not be altered.",
          "Changing LPD of Corridor space type to 0.5 (W/ft^2) from 0.3 (W/ft^2)",
          "Changing LPD of Data space type to 0.6 (W/ft^2) from 0.5 (W/ft^2)",
          "Changing LPD of Lobby space type to 1.1 (W/ft^2) from 0.8 (W/ft^2)",
          "Changing LPD of Stairway space type to 0.6 (W/ft^2) from 0.6 (W/ft^2)",
          "Changing LPD of Conference space type to 0.8 (W/ft^2) from 0.8 (W/ft^2)",
          "Changing LPD of Open Office space type to 0.7 (W/ft^2) from 0.3 (W/ft^2)",
          "Changing LPD of Storage space type to 0.6 (W/ft^2) from 0.3 (W/ft^2)"
        ],
        "step_initial_condition": "The building started with an LPD 0.4 (W/ft^2).",
        "step_result": "Success",
        "step_values": [
          {
            "name": "material_cost_ip",
            "value": 0
          }
        ],
        "step_warnings": []
      }
    },
    {
      "arguments": {
        "costTotal": 0
      },
      "description": "Option 1 Description: This measure reduces the values associated with lighting schedules to simulate reductions due to vacancy sensors throughout the building.",
      "measure_dir_name": "AedgSmallToMediumOfficeInteriorLightingControls",
      "name": "Int Lighting Ctrl",
      "result": {
        "completed_at": "20181105T192526Z",
        "measure_class_name": "AedgSmallToMediumOfficeInteriorLightingControls",
        "measure_display_name": "AedgSmallToMediumOfficeInteriorLightingControls",
        "measure_name": "aedg_small_to_medium_office_interior_lighting_controls",
        "measure_taxonomy": "Electric Lighting.Electric Lighting Controls",
        "measure_type": "ModelMeasure",
        "measure_uid": "57ba8820-6394-4c76-86c3-cc045a8a2b26",
        "measure_version_id": "f5419b7b-b510-4754-8e95-ff70932f243e",
        "measure_version_modified": "20180705T145959Z",
        "measure_xml_checksum": "9B7BB4D8",
        "started_at": "20181105T192526Z",
        "stderr": "",
[...]
.energyplus.SqlFile] <-2> Time series found\n[openstudio.energyplus.SqlFile] <-2> Making time series for envPeriod = 'RUN PERIOD 1', reportingFrequency = 'Hourly', timeSeriesName = 'Surface Average Face Conduction Heat Transfer Energy', keyValue = 'Surface 261'\n[openstudio.energyplus.SqlFile] <-2> Tuple: RUN PERIOD 1, Hourly, Surface Average Face Conduction Heat Transfer Energy, Surface 261 not found in data dictionary.\n[openstudio.energyplus.SqlFile] <-2> Trying query: RUN PERIOD 1, Hourly, Surface Average Face Conduction Heat Transfer Energy, SURFACE 261\n[openstudio.energyplus.SqlFile] <-2> Making time series for envPeriod = 'RUN PERIOD 1', reportingFrequency = 'Hourly', timeSeriesName = 'Surface Average Face Conduction Heat Transfer Energy', keyValue = 'SURFACE 261'\n[openstudio.energyplus.SqlFile] <-2> Time series found\n[openstudio.energyplus.SqlFile] <-2> Time series found\n[openstudio.energyplus.SqlFile] <-2> Making time series for envPeriod = 'RUN PERIOD 1', reportingFrequency = 'Hourly', timeSeriesName = 'Surface Average Face Conduction Heat Transfer Energy', keyValue = 'Surface 267'\n[openstudio.energyplus.SqlFile] <-2> Tuple: RUN PERIOD 1, Hourly, Surface Average Face Conduction Heat Transfer Energy, Surface 267 not found in data dictionary.\n[openstudio.energyplus.SqlFile] <-2> Trying query: RUN PERIOD 1, Hourly, Surface Average Face Conduction Heat Transfer Energy, SURFACE 267\n[openstudio.energyplus.SqlFile] <-2> Making time series for envPeriod = 'RUN PERIOD 1', reportingFrequency = 'Hourly', timeSeriesName = 'Surface Average Face Conduction Heat Transfer Energy', keyValue = 'SURFACE 267'\n[openstudio.energyplus.SqlFile] <-2> Time series found\n[openstudio.energyplus.SqlFile] <-2> Time series found\n[openstudio.energyplus.SqlFile] <-2> Making time series for envPeriod = 'RUN PERIOD 1', reportingFrequency = 'Hourly', timeSeriesName = 'Surface Average Face Conduction Heat Transfer Energy', keyValue = 'Surface 273'\n[openstudio.energyplus.SqlFile] <-2> Tuple: RUN PERIOD 1, Hourly, Surface Average Face Conduction Heat Transfer Energy, Surface 273 not found in data dictionary.\n[openstudio.energyplus.SqlFile] <-2> Trying query: RUN PERIOD 1, Hourly, Surface Average Face Conduction Heat Transfer Energy, SURFACE 273\n[openstudio.energyplus.SqlFile] <-2> Making time series for envPeriod = 'RUN PERIOD 1', reportingFrequency = 'Hourly', timeSeriesName = 'Surface Average Face Conduction Heat Transfer Energy', keyValue = 'SURFACE 273'\n[openstudio.energyplus.SqlFile] <-2> Time series found\n[openstudio.energyplus.SqlFile] <-2> Time series found\n[openstudio.energyplus.SqlFile] <-2> Making time series for envPeriod = 'RUN PERIOD 1', reportingFrequency = 'Hourly', timeSeriesName = 'Surface Average Face Conduction Heat Transfer Energy', keyValue = 'Surface 279'\n[openstudio.energyplus.SqlFile] <-2> Tuple: RUN PERIOD 1, Hourly, Surface Average Face Conduction Heat Transfer Energy, Surface 279 not found in data dictionary.\n[openstudio.energyplus.SqlFile] <-2> Trying query: RUN PERIOD 1, Hourly, Surface Average Face Conduction Heat Transfer Energy, SURFACE 279\n[openstudio.energyplus.SqlFile] <-2> Making time series for envPeriod = 'RUN PERIOD 1', reportingFrequency = 'Hourly', timeSeriesName = 'Surface Average Face Conduction Heat Transfer Energy', keyValue = 'SURFACE 279'\n[openstudio.energyplus.SqlFile] <-2> Time series found\n[openstudio.energyplus.SqlFile] <-2> Time series found\n[openstudio.energyplus.SqlFile] <-2> Making time series for envPeriod = 'RUN PERIOD 1', reportingFrequency = 'Hourly', timeSeriesName = 'Surface Average Face Conduction Heat Transfer Energy', keyValue = 'Surface 284'\n[openstudio.energyplus.SqlFile] <-2> Tuple: RUN PERIOD 1, Hourly, Surface Average Face Conduction Heat Transfer Energy, Surface 284 not found in data dictionary.\n[openstudio.energyplus.SqlFile] <-2> Trying query: RUN PERIOD 1, Hourly, Surface Average Face Conduction Heat Transfer Energy, SURFACE 284\n[openstudio.energyplus.SqlFile] <-2> Making time series for envPeriod = 'RUN PERIOD 1', reportingFrequency = 'Hourly', timeSeriesName = 'Surface Average Face Conduction Heat Transfer Energy', keyValue = 'SURFACE 284'\n[openstudio.energyplus.SqlFile] <-2> Time series found\n[openstudio.energyplus.SqlFile] <-2> Time series found\n[openstudio.energyplus.SqlFile] <-2> Making time series for envPeriod = 'RUN PERIOD 1', reportingFrequency = 'Hourly', timeSeriesName = 'Surface Average Face Conduction Heat Transfer Energy', keyValue = 'Surface 288'\n[openstudio.energyplus.SqlFile] <-2> Tuple: RUN PERIOD 1, Hourly, Surface Average Face Conduction Heat Transfer Energy, Surface 288 not found in data dictionary.\n[openstudio.energyplus.SqlFile] <-2> Trying query: RUN PERIOD 1, Hourly, Surface Average Face Conduction Heat Transfer Energy, SURFACE 288\n[openstudio.energyplus.SqlFile] <-2> Making time series for envPeriod = 'RUN PERIOD 1', reportingFrequency = 'Hourly', timeSeriesName = 'Surface Average Face Conduction Heat Transfer Energy', keyValue = 'SURFACE 288'\n[openstudio.energyplus.SqlFile] <-2> Time series found\n[openstudio.energyplus.SqlFile] <-2> Time series found\n[openstudio.energyplus.SqlFile] <-2> Making time series for envPeriod = 'RUN PERIOD 1', reportingFrequency = 'Hourly', timeSeriesName = 'Surface Average Face Conduction Heat Transfer Energy', keyValue = 'Surface 290'\n[openstudio.energyplus.SqlFile] <-2> Tuple: RUN PERIOD 1, Hourly, Surface Average Face Conduction Heat Transfer Energy, Surface 290 not found in data dictionary.\n[openstudio.energyplus.SqlFile] <-2> Trying query: RUN PERIOD 1, Hourly, Surface Average Face Conduction Heat Transfer Energy, SURFACE 290\n[openstudio.energyplus.SqlFile] <-2> Making time series for envPeriod = 'RUN PERIOD 1', reportingFrequency = 'Hourly', timeSeriesName = 'Surface Average Face Conduction Heat Transfer Energy', keyValue = 'SURFACE 290'\n[openstudio.energyplus.SqlFile] <-2> Time series found\n[openstudio.energyplus.SqlFile] <-2> Time series found\n[openstudio.energyplus.SqlFile] <-2> Making time series for envPeriod = 'RUN PERIOD 1', reportingFrequency = 'Hourly', timeSeriesName = 'Surface Average Face Conduction Heat Transfer Energy', keyValue = 'Surface 31'\n[openstudio.energyplus.SqlFile] <-2> Tuple: RUN PERIOD 1, Hourly, Surface Average Face Conduction Heat Transfer Energy, Surface 31 not found in data dictionary.\n[openstudio.energyplus.SqlFile] <-2> Trying query: RUN PERIOD 1, Hourly, Surface Average Face Conduction Heat Transfer Energy, SURFACE 31\n[openstudio.energyplus.SqlFile] <-2> Making time series for envPeriod = 'RUN PERIOD 1', reportingFrequency = 'Hourly', timeSeriesName = 'Surface Average Face Conduction Heat Transfer Energy', keyValue = 'SURFACE 31'\n[openstudio.energyplus.SqlFile] <-2> Time series found\n[openstudio.energyplus.SqlFile] <-2> Time series found\n[openstudio.energyplus.SqlFile] <-2> Making time series for envPeriod = 'RUN PERIOD 1', reportingFrequency = 'Hourly', timeSeriesName = 'Surface Average Face Conduction Heat Transfer Energy', keyValue = 'Surface 36'\n[openstudio.energyplus.SqlFile] <-2> Tuple: RUN PERIOD 1, Hourly, Surface Average Face Conduction Heat Transfer Energy, Surface 36 not found in data dictionary.\n[openstudio.energyplus.SqlFile] <-2> Trying query: RUN PERIOD 1, Hourly, Surface Average Face Conduction Heat Transfer Energy, SURFACE 36\n[openstudio.energyplus.SqlFile] <-2> Making time series for envPeriod = 'RUN PERIOD 1', reportingFrequency = 'Hourly', timeSeriesName = 'Surface Average Face Conduction Heat Transfer Energy', keyValue = 'SURFACE 36'\n[openstudio.energyplus.SqlFile] <-2> Time series found\n[openstudio.energyplus.SqlFile] <-2> Time series found\n[openstudio.energyplus.SqlFile] <-2> Making time series for envPeriod = 'RUN PERIOD 1', reportingFrequency = 'Hourly', timeSeriesName = 'Surface Average Face Conduction Heat Transfer Energy', keyValue = 'Surface 38'\n[openstudio.energyplus.SqlFile] <-2> Tuple: RUN PERIOD 1, Hourly, Surface Average Face Conduction Heat Transfer Energy, Surface 38 not found in data dictionary.\n[openstudio.energyplus.SqlFile] <-2> Trying query: RUN PERIOD 1, Hourly, Surface Average Face Conduction Heat Transfer Energy, SURFACE 38\n[openstudio.energyplus.SqlFile] <-2> Making time series for envPeriod = 'RUN PERIOD 1', reportingFrequency = 'Hourly', timeSeriesName = 'Surface Average Face Conduction Heat Transfer Energy', keyValue = 'SURFACE 38'\n[openstudio.energyplus.SqlFile] <-2> Time series found\n[openstudio.energyplus.SqlFile] <-2> Time series found\n[openstudio.energyplus.SqlFile] <-2> Making time series for envPeriod = 'RUN PERIOD 1', reportingFrequency = 'Hourly', timeSeriesName = 'Surface Average Face Conduction Heat Transfer Energy', keyValue = 'Surface 4'\n[openstudio.energyplus.SqlFile] <-2> Tuple: RUN PERIOD 1, Hourly, Surface Average Face Conduction Heat Transfer Energy, Surface 4 not found in data dictionary.\n[openstudio.energyplus.SqlFile] <-2> Trying query: RUN PERIOD 1, Hourly, Surface Average Face Conduction Heat Transfer Energy, SURFACE 4\n[openstudio.energyplus.SqlFile] <-2> Making time series for envPeriod = 'RUN PERIOD 1', reportingFrequency = 'Hourly', timeSeriesName = 'Surface Average Face Conduction Heat Transfer Energy', keyValue = 'SURFACE 4'\n[openstudio.energyplus.SqlFile] <-2> Time series found\n[openstudio.energyplus.SqlFile] <-2> Time series found\n[openstudio.energyplus.SqlFile] <-2> Making time series for envPeriod = 'RUN PERIOD 1', reportingFrequency = 'Hourly', timeSeriesName = 'Surface Average Face Conduction Heat Transfer Energy', keyValue = 'Surface 45'\n[openstudio.energyplus.SqlFile] <-2> Tuple: RUN PERIOD 1, Hourly, Surface Average Face Conduction Heat Transfer Energy, Surface 45 not found in data dictionary.\n[openstudio.energyplus.SqlFile] <-2> Trying query: RUN PERIOD 1, Hourly, Surface Average Face Conduction Heat Transfer Energy, SURFACE 45\n[openstudio.energyplus.SqlFile] <-2> Making time series for envPeriod = 'RUN PERIOD 1', reportingFrequency = 'Hourly', timeSeriesName = 'Surface Average Face Conduction Heat Transfer Energy', keyValue = 'SURFACE 45'\n[openstudio.energyplus.SqlFile] <-2> Time series found\n[openstudio.energyplus.SqlFile] <-2> Time series found\n[openstudio.energyplus.SqlFile] <-2> Making time series for envPeriod = 'RUN PERIOD 1', reportingFrequency = 'Hourly', timeSeriesName = 'Surface Average Face Conduction Heat Transfer Energy', keyValue = 'Surface 55'\n[openstudio.energyplus.SqlFile] <-2> Tuple: RUN PERIOD 1, Hourly, Surface Average Face Conduction Heat Transfer Energy, Surface 55 not found in data dictionary.\n[openstudio.energyplus.SqlFile] <-2> Trying query: RUN PERIOD 1, Hourly, Surface Average Face Conduction Heat Transfer Energy, SURFACE 55\n[openstudio.energyplus.SqlFile] <-2> Making time series for envPeriod = 'RUN PERIOD 1', reportingFrequency = 'Hourly', timeSeriesName = 'Surface Average Face Conduction Heat Transfer Energy', keyValue = 'SURFACE 55'\n[openstudio.energyplus.SqlFile] <-2> Time series found\n[openstudio.energyplus.SqlFile] <-2> Time series found\n[openstudio.energyplus.SqlFile] <-2> Making time series for envPeriod = 'RUN PERIOD 1', reportingFrequency = 'Hourly', timeSeriesName = 'Surface Average Face Conduction Heat Transfer Energy', keyValue = 'Surface 61'\n[openstudio.energyplus.SqlFile] <-2> Tuple: RUN PERIOD 1, Hourly, Surface Average Face Conduction Heat Transfer Energy, Surface 61 not found in data dictionary.\n[openstudio.energyplus.SqlFile] <-2> Trying query: RUN PERIOD 1, Hourly, Surface Average Face Conduction Heat Transfer Energy, SURFACE 61\n[openstudio.energyplus.SqlFile] <-2> Making time series for envPeriod = 'RUN PERIOD 1', reportingFrequency = 'Hourly', timeSeriesName = 'Surface Average Face Conduction Heat Transfer Energy', keyValue = 'SURFACE 61'\n[openstudio.energyplus.SqlFile] <-2> Time series found\n[openstudio.energyplus.SqlFile] <-2> Time series found\n[openstudio.energyplus.SqlFile] <-2> Making time series for envPeriod = 'RUN PERIOD 1', reportingFrequency = 'Hourly', timeSeriesName = 'Surface Average Face Conduction Heat Transfer Energy', keyValue = 'Surface 69'\n[openstudio.energyplus.SqlFile] <-2> Tuple: RUN PERIOD 1, Hourly, Surface Average Face Conduction Heat Transfer Energy, Surface 69 not found in data dictionary.\n[openstudio.energyplus.SqlFile] <-2> Trying query: RUN PERIOD 1, Hourly, Surface Average Face Conduction Heat Transfer Energy, SURFACE 69\n[openstudio.energyplus.SqlFile] <-2> Making time series for envPeriod = 'RUN PERIOD 1', reportingFrequency = 'Hourly', timeSeriesName = 'Surface Average Face Conduction Heat Transfer Energy', keyValue = 'SURFACE 69'\n[openstudio.energyplus.SqlFile] <-2> Time series found\n[openstudio.energyplus.SqlFile] <-2> Time series found\n[openstudio.energyplus.SqlFile] <-2> Making time series for envPeriod = 'RUN PERIOD 1', reportingFrequency = 'Hourly', timeSeriesName = 'Surface Average Face Conduction Heat Transfer Energy', keyValue = 'Surface 7'\n[openstudio.energyplus.SqlFile] <-2> Tuple: RUN PERIOD 1, Hourly, Surface Average Face Conduction Heat Transfer Energy, Surface 7 not found in data dictionary.\n[openstudio.energyplus.SqlFile] <-2> Trying query: RUN PERIOD 1, Hourly, Surface Average Face Conduction Heat Transfer Energy, SURFACE 7\n[openstudio.energyplus.SqlFile] <-2> Making time series for envPeriod = 'RUN PERIOD 1', reportingFrequency = 'Hourly', timeSeriesName = 'Surface Average Face Conduction Heat Transfer Energy', keyValue = 'SURFACE 7'\n[openstudio.energyplus.SqlFile] <-2> Time series found\n[openstudio.energyplus.SqlFile] <-2> Time series found\n[openstudio.energyplus.SqlFile] <-2> Making time series for envPeriod = 'RUN PERIOD 1', reportingFrequency = 'Hourly', timeSeriesName = 'Surface Average Face Conduction Heat Transfer Energy', keyValue = 'Surface 78'\n[openstudio.energyplus.SqlFile] <-2> Tuple: RUN PERIOD 1, Hourly, Surface Average Face Conduction Heat Transfer Energy, Surface 78 not found in data dictionary.\n[openstudio.energyplus.SqlFile] <-2> Trying query: RUN PERIOD 1, Hourly, Surface Average Face Conduction Heat Transfer Energy, SURFACE 78\n[openstudio.energyplus.SqlFile] <-2> Making time series for envPeriod = 'RUN PERIOD 1', reportingFrequency = 'Hourly', timeSeriesName = 'Surface Average Face Conduction Heat Transfer Energy', keyValue = 'SURFACE 78'\n[openstudio.energyplus.SqlFile] <-2> Time series found\n[openstudio.energyplus.SqlFile] <-2> Time series found\n[openstudio.energyplus.SqlFile] <-2> Making time series for envPeriod = 'RUN PERIOD 1', reportingFrequency = 'Hourly', timeSeriesName = 'Surface Average Face Conduction Heat Transfer Energy', keyValue = 'Surface 84'\n[openstudio.energyplus.SqlFile] <-2> Tuple: RUN PERIOD 1, Hourly, Surface Average Face Conduction Heat Transfer Energy, Surface 84 not found in data dictionary.\n[openstudio.energyplus.SqlFile] <-2> Trying query: RUN PERIOD 1, Hourly, Surface Average Face Conduction Heat Transfer Energy, SURFACE 84\n[openstudio.energyplus.SqlFile] <-2> Making time series for envPeriod = 'RUN PERIOD 1', reportingFrequency = 'Hourly', timeSeriesName = 'Surface Average Face Conduction Heat Transfer Energy', keyValue = 'SURFACE 84'\n[openstudio.energyplus.SqlFile] <-2> Time series found\n[openstudio.energyplus.SqlFile] <-2> Time series found\n[openstudio.energyplus.SqlFile] <-2> Making time series for envPeriod = 'RUN PERIOD 1', reportingFrequency = 'Hourly', timeSeriesName = 'Surface Average Face Conduction Heat Transfer Energy', keyValue = 'Surface 91'\n[openstudio.energyplus.SqlFile] <-2> Tuple: RUN PERIOD 1, Hourly, Surface Average Face Conduction Heat Transfer Energy, Surface 91 not found in data dictionary.\n[openstudio.energyplus.SqlFile] <-2> Trying query: RUN PERIOD 1, Hourly, Surface Average Face Conduction Heat Transfer Energy, SURFACE 91\n[openstudio.energyplus.SqlFile] <-2> Making time series for envPeriod = 'RUN PERIOD 1', reportingFrequency = 'Hourly', timeSeriesName = 'Surface Average Face Conduction Heat Transfer Energy', keyValue = 'SURFACE 91'\n[openstudio.energyplus.SqlFile] <-2> Time series found\n[openstudio.energyplus.SqlFile] <-2> Time series found\n[openstudio.energyplus.SqlFile] <-2> Making time series for envPeriod = 'RUN PERIOD 1', reportingFrequency = 'Hourly', timeSeriesName = 'Surface Average Face Conduction Heat Transfer Energy', keyValue = 'Surface 98'\n[openstudio.energyplus.SqlFile] <-2> Tuple: RUN PERIOD 1, Hourly, Surface Average Face Conduction Heat Transfer Energy, Surface 98 not found in data dictionary.\n[openstudio.energyplus.SqlFile] <-2> Trying query: RUN PERIOD 1, Hourly, Surface Average Face Conduction Heat Transfer Energy, SURFACE 98\n[openstudio.energyplus.SqlFile] <-2> Making time series for envPeriod = 'RUN PERIOD 1', reportingFrequency = 'Hourly', timeSeriesName = 'Surface Average Face Conduction Heat Transfer Energy', keyValue = 'SURFACE 98'\n[openstudio.energyplus.SqlFile] <-2> Time series found\n[openstudio.energyplus.SqlFile] <-2> Time series found\n",
        "step_errors": [],
        "step_files": [
          "/Users/dgoldwas/Documents/GitHub/Personal/PAT_projects/PAT_RaceToZero_Office/temp_data/analysis_93a201b4-a284-4ee3-a5d4-0bd0a7fc7e80/data_point_29dba165-e422-4d88-8891-c77852b8634d/run/023_envelope_and_internal_load_breakdown/report.html"
        ],
        "step_final_condition": "Generated report with 4 sections to ./report.html.",
        "step_info": [],
        "step_initial_condition": "Gathering data from EnergyPlus SQL file and OSM model.",
        "step_result": "Success",
        "step_values": [
          {
            "name": "electric_equipment_total_heating_energy_annual",
            "units": "kBtu",
            "value": 83064.24106005041
          },
          {
            "name": "gas_equipment_total_heating_energy_annual",
            "units": "kBtu",
            "value": 0
          },
          {
            "name": "zone_lights_total_heating_energy_annual",
            "units": "kBtu",
            "value": 56824.009996272536
          },
          {
            "name": "zone_people_sensible_heating_energy_annual",
            "units": "kBtu",
            "value": 200893.7684647764
          },
          {
            "name": "zone_infiltration_sensible_heat_gain_energy_annual",
            "units": "kBtu",
            "value": 2259.3885930248043
          },
          {
            "name": "surface_window_heat_gain_energy_annual",
            "units": "kBtu",
            "value": 155654.22069450177
          },
          {
            "name": "ext_wall_heat_gain",
            "units": "kBtu",
            "value": 102644.6
          },
          {
            "name": "ext_roof_heat_gain",
            "units": "kBtu",
            "value": 7787.8
          },
          {
            "name": "ground_heat_gain",
            "units": "kBtu",
            "value": 2203
          },
          {
            "name": "surface_heat_gain",
            "units": "kBtu",
            "value": 112635.3
          },
          {
            "name": "zone_infiltration_sensible_heat_loss_energy_annual",
            "units": "kBtu",
            "value": 110965.04302926235
          },
          {
            "name": "surface_window_heat_loss_energy_annual",
            "units": "kBtu",
            "value": 161620.46157550215
          },
          {
            "name": "ext_wall_heat_loss",
            "units": "kBtu",
            "value": 134798.1
          },
          {
            "name": "ext_roof_heat_loss",
            "units": "kBtu",
            "value": 74290.9
          },
          {
            "name": "ground_heat_loss",
            "units": "kBtu",
            "value": 77427.8
          },
          {
            "name": "surface_heat_loss",
            "units": "kBtu",
            "value": 286516.8
          }
        ],
        "step_warnings": []
      }
    }
  ],
  "updated_at": "20181105T193009Z",
  "weather_file": "USA_AK_Fairbanks.Intl.AP.702610_TMY3.epw"
}