Program Version,EnergyPlus, Version 9.1.0-08d2e308bb, YMD=2019.04.09 23:12
! <Version>, Version ID
 Version, 9.1
! <Timesteps per Hour>, #TimeSteps, Minutes per TimeStep {minutes}
 Timesteps per Hour,  6, 10
! <System Convergence Limits>, Minimum System TimeStep {minutes}, Max HVAC Iterations, Minimum Plant Iterations, Maximum Plant Iterations
 System Convergence Limits, 1, 20, 2, 8
! <Simulation Control>, Do Zone Sizing, Do System Sizing, Do Plant Sizing, Do Design Days, Do Weather Simulation, Do HVAC Sizing Simulation
 Simulation Control, Yes, Yes, Yes, Yes, No, No
! <Output Reporting Tolerances>, Tolerance for Time Heating Setpoint Not Met, Tolerance for Zone Cooling Setpoint Not Met Time
 Output Reporting Tolerances, 0.556, 0.556, 
! <Site:GroundTemperature:BuildingSurface>,Jan{C},Feb{C},Mar{C},Apr{C},May{C},Jun{C},Jul{C},Aug{C},Sep{C},Oct{C},Nov{C},Dec{C}
 Site:GroundTemperature:BuildingSurface,  18.00,  18.00,  18.00,  18.00,  18.00,  18.00,  18.00,  18.00,  18.00,  18.00,  18.00,  18.00
! <Site:GroundTemperature:FCfactorMethod>,Jan{C},Feb{C},Mar{C},Apr{C},May{C},Jun{C},Jul{C},Aug{C},Sep{C},Oct{C},Nov{C},Dec{C}
 Site:GroundTemperature:FCfactorMethod,   2.54,   1.49,   3.34,   6.25,  13.83,  19.69,  23.64,  24.84,  22.79,  18.25,  12.17,   6.53
! <Site:GroundTemperature:Shallow>,Jan{C},Feb{C},Mar{C},Apr{C},May{C},Jun{C},Jul{C},Aug{C},Sep{C},Oct{C},Nov{C},Dec{C}
 Site:GroundTemperature:Shallow,  13.00,  13.00,  13.00,  13.00,  13.00,  13.00,  13.00,  13.00,  13.00,  13.00,  13.00,  13.00
! <Site:GroundTemperature:Deep>,Jan{C},Feb{C},Mar{C},Apr{C},May{C},Jun{C},Jul{C},Aug{C},Sep{C},Oct{C},Nov{C},Dec{C}
 Site:GroundTemperature:Deep,  16.00,  16.00,  16.00,  16.00,  16.00,  16.00,  16.00,  16.00,  16.00,  16.00,  16.00,  16.00
! <Site:GroundReflectance>,Jan{dimensionless},Feb{dimensionless},Mar{dimensionless},Apr{dimensionless},May{dimensionless},Jun{dimensionless},Jul{dimensionless},Aug{dimensionless},Sep{dimensionless},Oct{dimensionless},Nov{dimensionless},Dec{dimensionless}
 Site:GroundReflectance,  0.20,  0.20,  0.20,  0.20,  0.20,  0.20,  0.20,  0.20,  0.20,  0.20,  0.20,  0.20
! <Site:GroundReflectance:SnowModifier>, Normal, Daylighting {dimensionless}
 Site:GroundReflectance:SnowModifier,   1.000,   1.000
! <Site:GroundReflectance:Snow>,Jan{dimensionless},Feb{dimensionless},Mar{dimensionless},Apr{dimensionless},May{dimensionless},Jun{dimensionless},Jul{dimensionless},Aug{dimensionless},Sep{dimensionless},Oct{dimensionless},Nov{dimensionless},Dec{dimensionless}
 Site:GroundReflectance:Snow,  0.20,  0.20,  0.20,  0.20,  0.20,  0.20,  0.20,  0.20,  0.20,  0.20,  0.20,  0.20
! <Site:GroundReflectance:Snow:Daylighting>,Jan{dimensionless},Feb{dimensionless},Mar{dimensionless},Apr{dimensionless},May{dimensionless},Jun{dimensionless},Jul{dimensionless},Aug{dimensionless},Sep{dimensionless},Oct{dimensionless},Nov{dimensionless},Dec{dimensionless}
 Site:GroundReflectance:Snow:Daylighting,  0.20,  0.20,  0.20,  0.20,  0.20,  0.20,  0.20,  0.20,  0.20,  0.20,  0.20,  0.20
! <Environment:Weather Station>,Wind Sensor Height Above Ground {m},Wind Speed Profile Exponent {},Wind Speed Profile Boundary Layer Thickness {m},Air Temperature Sensor Height Above Ground {m},Wind Speed Modifier Coefficient-Internal,Temperature Modifier Coefficient-Internal
Environment:Weather Station,10.000,0.140,270.000,1.500,1.586,9.750E-003
! <Site:Location>, Location Name, Latitude {N+/S- Deg}, Longitude {E+/W- Deg},  Time Zone Number {GMT+/-}, Elevation {m},  Standard Pressure at Elevation {Pa}, Standard RhoAir at Elevation
Site:Location,Baltimore Blt Washngtn IntL MD USA TMY3 WMO#=724060,39.17,-76.68,-5.00,45.00,100786,1.1979
! <Site Water Mains Temperature Information>,Calculation Method{},Water Mains Temperature Schedule Name{},Annual Average Outdoor Air Temperature{C},Maximum Difference In Monthly Average Outdoor Air Temperatures{deltaC},Fixed Default Water Mains Temperature{C}
Site Water Mains Temperature Information,FixedDefault,NA,NA,NA,10.0
! <Building Information>, Building Name,North Axis {deg},Terrain,  Loads Convergence Tolerance Value,Temperature Convergence Tolerance Value,  Solar Distribution,Maximum Number of Warmup Days,Minimum Number of Warmup Days
 Building Information,GlassBox ASHRAE 169-2006-4A,0.000,Suburbs,4.00000E-002,0.40000,FullExterior,25,6
! <Inside Convection Algorithm>, Algorithm {Simple | TARP | CeilingDiffuser | AdaptiveConvectionAlgorithm}
Inside Convection Algorithm,TARP
! <Outside Convection Algorithm>, Algorithm {SimpleCombined | TARP | MoWitt | DOE-2 | AdaptiveConvectionAlgorithm}
Outside Convection Algorithm,DOE-2
! <Sky Radiance Distribution>, Value {Anisotropic}
Sky Radiance Distribution,Anisotropic
! <Zone Air Solution Algorithm>, Value {ThirdOrderBackwardDifference | AnalyticalSolution | EulerMethod}
 Zone Air Solution Algorithm, ThirdOrderBackwardDifference
! <Zone Air Carbon Dioxide Balance Simulation>, Simulation {Yes/No}, Carbon Dioxide Concentration
 Zone Air Carbon Dioxide Balance Simulation, No,N/A
! <Zone Air Generic Contaminant Balance Simulation>, Simulation {Yes/No}, Generic Contaminant Concentration
 Zone Air Generic Contaminant Balance Simulation, No,N/A
! <Zone Air Mass Flow Balance Simulation>, Enforce Mass Balance, Adjust Zone Mixing, Adjust Zone Infiltration {AddInfiltration | AdjustInfiltration | None}, Infiltration Zones {MixingSourceZonesOnly | AllZones}
 Zone Air Mass Flow Balance Simulation, No,N/A,N/A,N/A
! <HVACSystemRootFindingAlgorithm>, Value {RegulaFalsi | Bisection | BisectionThenRegulaFalsi | RegulaFalsiThenBisection}
 HVACSystemRootFindingAlgorithm, RegulaFalsi
! <Environment:Site Atmospheric Variation>,Wind Speed Profile Exponent {},Wind Speed Profile Boundary Layer Thickness {m},Air Temperature Gradient Coefficient {K/m}
Environment:Site Atmospheric Variation,0.220,370.000,6.500000E-003
! <Surface Geometry>,Starting Corner,Vertex Input Direction,Coordinate System,Daylight Reference Point Coordinate System,Rectangular (Simple) Surface Coordinate System
 Surface Geometry,UpperLeftCorner,Counterclockwise,RelativeCoordinateSystem,RelativeCoordinateSystem,RelativeToZoneOrigin
! <Surface Heat Transfer Algorithm>, Value {CTF - ConductionTransferFunction | EMPD - MoisturePenetrationDepthConductionTransferFunction | CondFD - ConductionFiniteDifference | HAMT - CombinedHeatAndMoistureFiniteElement} - Description,Inside Surface Max Temperature Limit{C}, Surface Convection Coefficient Lower Limit {W/m2-K}, Surface Convection Coefficient Upper Limit {W/m2-K}
Surface Heat Transfer Algorithm, CTF - ConductionTransferFunction,200,0.10,1000.0
! <Shading Summary>, Number of Fixed Detached Shades, Number of Building Detached Shades, Number of Attached Shades
 Shading Summary,0,0,0
! <Zone Summary>, Number of Zones, Number of Zone Surfaces, Number of SubSurfaces
 Zone Summary,4,33,5
! <Zone Information>,Zone Name,North Axis {deg},Origin X-Coordinate {m},Origin Y-Coordinate {m},Origin Z-Coordinate {m},Centroid X-Coordinate {m},Centroid Y-Coordinate {m},Centroid Z-Coordinate {m},Type,Zone Multiplier,Zone List Multiplier,Minimum X {m},Maximum X {m},Minimum Y {m},Maximum Y {m},Minimum Z {m},Maximum Z {m},Ceiling Height {m},Volume {m3},Zone Inside Convection Algorithm {Simple-Detailed-CeilingDiffuser-TrombeWall},Zone Outside Convection Algorithm {Simple-Detailed-Tarp-MoWitt-DOE-2-BLAST}, Floor Area {m2},Exterior Gross Wall Area {m2},Exterior Net Wall Area {m2},Exterior Window Area {m2}, Number of Surfaces, Number of SubSurfaces, Number of Shading SubSurfaces,  Part of Total Building Area
 Zone Information, TZ_DINING,0.0,0.00,6.10,0.00,3.05,9.14,2.29,1,1,1,0.00,6.10,6.10,12.19,0.00,4.57,4.57,169.90,TARP,DOE-2,37.16,55.74,33.45,22.30,6,2,0,Yes
 Zone Information, TZ_KITCHEN,0.0,6.10,6.10,0.00,9.14,9.14,2.29,1,1,1,6.10,12.19,6.10,12.19,0.00,4.57,4.57,169.90,TARP,DOE-2,37.16,83.61,83.61,0.00,6,0,0,Yes
 Zone Information, TZ_LOBBY,0.0,0.00,0.00,0.00,3.05,3.05,2.29,1,1,1,0.00,6.10,0.00,6.10,0.00,4.57,4.57,169.90,TARP,DOE-2,37.16,83.61,4.18,79.43,6,3,0,Yes
 Zone Information, TZ_PLENUM,0.0,0.00,0.00,4.57,5.55,6.65,5.03,1,1,1,0.00,12.19,0.00,12.19,4.57,5.49,0.91,101.94,TARP,DOE-2,111.48,44.59,44.59,0.00,10,0,0,No
! <Zone Internal Gains Nominal>,Zone Name, Floor Area {m2},# Occupants,Area per Occupant {m2/person},Occupant per Area {person/m2},Interior Lighting {W/m2},Electric Load {W/m2},Gas Load {W/m2},Other Load {W/m2},Hot Water Eq {W/m2},Steam Equipment {W/m2},Sum Loads per Area {W/m2},Outdoor Controlled Baseboard Heat
 Zone Internal Gains Nominal, TZ_DINING,37.16,26.8,1.387,0.721,20.344,94.077,0.000,0.000,0.000,0.000,114.420,No
 Zone Internal Gains Nominal, TZ_KITCHEN,37.16,2.0,18.581,5.382E-002,11.625,219.584,941.961,0.000,0.000,0.000,1173.170,No
 Zone Internal Gains Nominal, TZ_LOBBY,37.16,4.0,9.290,0.108,12.594,0.753,0.000,0.000,0.000,0.000,13.347,No
 Zone Internal Gains Nominal, TZ_PLENUM,111.48,0.0,N/A,0.000,0.000,0.000,0.000,0.000,0.000,0.000,0.000,No
! <People Internal Gains Nominal>,Name,Schedule Name,Zone Name,Zone Floor Area {m2},# Zone Occupants,Number of People {},People/Floor Area {person/m2},Floor Area per person {m2/person},Fraction Radiant,Fraction Convected,Sensible Fraction Calculation,Activity level,ASHRAE 55 Warnings,Carbon Dioxide Generation Rate,Nominal Minimum Number of People,Nominal Maximum Number of People
 People Internal Gains Nominal, TZ_LOBBY 189.1-2009 - OFFICE - LOBBY - CZ4-8 PEOPLE,OFFICE MISC OCC,TZ_LOBBY,37.16,4.0,4.0,0.108,9.290,0.300,0.700,AutoCalculate,OFFICE ACTIVITY,No,3.8200E-008,0,4
 People Internal Gains Nominal, TZ_DINING 189.1-2009 - QCKSRVREST - DINING - CZ4-8 PEOPLE,QUICKSERVICERESTAURANT BLDG OCC,TZ_DINING,37.16,26.8,26.8,0.721,1.387,0.300,0.700,AutoCalculate,QUICKSERVICERESTAURANT ACTIVITY,No,3.8200E-008,0,27
 People Internal Gains Nominal, TZ_KITCHEN 189.1-2009 - QCKSRVREST - KITCHEN - CZ4-8 PEOPLE,QUICKSERVICERESTAURANT BLDG OCC,TZ_KITCHEN,37.16,2.0,2.0,5.382E-002,18.581,0.300,0.700,AutoCalculate,QUICKSERVICERESTAURANT ACTIVITY,No,3.8200E-008,0,2
! <Lights Internal Gains Nominal>,Name,Schedule Name,Zone Name,Zone Floor Area {m2},# Zone Occupants,Lighting Level {W},Lights/Floor Area {W/m2},Lights per person {W/person},Fraction Return Air,Fraction Radiant,Fraction Short Wave,Fraction Convected,Fraction Replaceable,End-Use Category,Nominal Minimum Lighting Level {W},Nominal Maximum Lighting Level {W}
 Lights Internal Gains Nominal, TZ_LOBBY 189.1-2009 - OFFICE - LOBBY - CZ4-8 LIGHTS,OFFICE BLDG LIGHT,TZ_LOBBY,37.16,4.0,468.000,12.594,117.000,0.000,0.000,0.000,1.000,1.000,General,0.000,468.000
 Lights Internal Gains Nominal, TZ_DINING 189.1-2009 - QCKSRVREST - DINING - CZ4-8 LIGHTS,QUICKSERVICERESTAURANT BLDG LIGHT,TZ_DINING,37.16,26.8,756.000,20.344,28.209,0.000,0.000,0.000,1.000,1.000,General,0.000,756.000
 Lights Internal Gains Nominal, TZ_KITCHEN 189.1-2009 - QCKSRVREST - KITCHEN - CZ4-8 LIGHTS,QUICKSERVICERESTAURANT BLDG LIGHT,TZ_KITCHEN,37.16,2.0,432.000,11.625,216.000,0.000,0.000,0.000,1.000,1.000,General,0.000,432.000
! <ElectricEquipment Internal Gains Nominal>,Name,Schedule Name,Zone Name,Zone Floor Area {m2},# Zone Occupants,Equipment Level {W},Equipment/Floor Area {W/m2},Equipment per person {W/person},Fraction Latent,Fraction Radiant,Fraction Lost,Fraction Convected,End-Use SubCategory,Nominal Minimum Equipment Level {W},Nominal Maximum Equipment Level {W}
 ElectricEquipment Internal Gains Nominal, TZ_LOBBY 189.1-2009 - OFFICE - LOBBY - CZ4-8 ELECTRIC EQUIPMENT,OFFICE BLDG EQUIP,TZ_LOBBY,37.16,4.0,28.000,0.753,7.000,0.000,0.000,0.000,1.000,General,0.000,28.000
 ElectricEquipment Internal Gains Nominal, TZ_DINING 189.1-2009 - QCKSRVREST - DINING - CZ4-8 ELECTRIC EQUIPMENT,QUICKSERVICERESTAURANT BLDG EQUIP,TZ_DINING,37.16,26.8,3496.002,94.077,130.448,0.000,0.000,0.000,1.000,General,0.000,1223.601
 ElectricEquipment Internal Gains Nominal, TZ_KITCHEN 189.1-2009 - QCKSRVREST - KITCHEN - CZ4-8 ELECTRIC EQUIPMENT,QUICKSERVICERESTAURANT BLDG EQUIP,TZ_KITCHEN,37.16,2.0,8160.004,219.584,4080.002,0.000,0.000,0.000,1.000,General,0.000,2856.001
! <GasEquipment Internal Gains Nominal>,Name,Schedule Name,Zone Name,Zone Floor Area {m2},# Zone Occupants,Equipment Level {W},Equipment/Floor Area {W/m2},Equipment per person {W/person},Fraction Latent,Fraction Radiant,Fraction Lost,Fraction Convected,End-Use SubCategory,Nominal Minimum Equipment Level {W},Nominal Maximum Equipment Level {W}
 GasEquipment Internal Gains Nominal, TZ_KITCHEN 189.1-2009 - QCKSRVREST - KITCHEN - CZ4-8 GAS EQUIPMENT,QUICKSERVICERESTAURANT GAS EQUIP,TZ_KITCHEN,37.16,2.0,35004.409,941.961,17502.204,0.000,0.000,0.000,1.000,General,0.000,9451.190
! <Shadowing/Sun Position Calculations Annual Simulations>, Calculation Method, Value {days}, Allowable Number Figures in Shadow Overlap {}, Polygon Clipping Algorithm, Sky Diffuse Modeling Algorithm, External Shading Calculation Method, Output External Shading Calculation Results, Disable Self-Shading Within Shading Zone Groups, Disable Self-Shading From Shading Zone Groups to Other Zones
Shadowing/Sun Position Calculations Annual Simulations,AverageOverDaysInFrequency,20,15000,SutherlandHodgman,SimpleSkyDiffuseModeling,InternalCalculation,No,No,No
! <ZoneInfiltration Airflow Stats Nominal>,Name,Schedule Name,Zone Name, Zone Floor Area {m2}, # Zone Occupants,Design Volume Flow Rate {m3/s},Volume Flow Rate/Floor Area {m3/s-m2},Volume Flow Rate/Exterior Surface Area {m3/s-m2},ACH - Air Changes per Hour,Equation A - Constant Term Coefficient {},Equation B - Temperature Term Coefficient {1/C},Equation C - Velocity Term Coefficient {s/m}, Equation D - Velocity Squared Term Coefficient {s2/m2}
 ZoneInfiltration Airflow Stats Nominal, TZ_LOBBY 189.1-2009 - OFFICE - LOBBY - CZ4-8 INFILTRATION,OFFICE INFIL QUARTER ON,TZ_LOBBY,37.16,4.0,1.894E-002,5.098E-004,2.266E-004,0.401,1.000,0.000,0.000,0.000
 ZoneInfiltration Airflow Stats Nominal, TZ_DINING 189.1-2009 - QCKSRVREST - DINING - CZ4-8 INFILTRATION,QUICKSERVICERESTAURANT INFIL HALF ON,TZ_DINING,37.16,26.8,1.263E-002,3.399E-004,2.266E-004,0.268,1.000,0.000,0.000,0.000
 ZoneInfiltration Airflow Stats Nominal, TZ_KITCHEN 189.1-2009 - QCKSRVREST - KITCHEN - CZ4-8 INFILTRATION,QUICKSERVICERESTAURANT INFIL HALF ON,TZ_KITCHEN,37.16,2.0,1.894E-002,5.098E-004,2.266E-004,0.401,1.000,0.000,0.000,0.000
! <AirFlow Model>, Simple
 AirFlow Model, Simple
! <RoomAir Model>, Zone Name, Mixing/Mundt/UCSDDV/UCSDCV/UCSDUFI/UCSDUFE/User Defined
RoomAir Model,TZ_DINING,Mixing/Well-Stirred
RoomAir Model,TZ_KITCHEN,Mixing/Well-Stirred
RoomAir Model,TZ_LOBBY,Mixing/Well-Stirred
RoomAir Model,TZ_PLENUM,Mixing/Well-Stirred
! <AirflowNetwork Model:Control>, No Multizone or Distribution/Multizone with Distribution/Multizone without Distribution/Multizone with Distribution only during Fan Operation
AirflowNetwork Model:Control,NoMultizoneOrDistribution
! <Zone Volume Capacitance Multiplier>, Sensible Heat Capacity Multiplier, Moisture Capacity Multiplier, Carbon Dioxide Capacity Multiplier, Generic Contaminant Capacity Multiplier
Zone Volume Capacitance Multiplier,   1.000 ,   1.000,   1.000,   1.000
! <Load Timesteps in Zone Design Calculation Averaging Window>, Value
 Load Timesteps in Zone Design Calculation Averaging Window,    6
! <Heating Sizing Factor Information>, Sizing Factor ID, Value
 Heating Sizing Factor Information, Global,   1.2500    
 Heating Sizing Factor Information, Zone TZ_DINING,   1.2500    
 Heating Sizing Factor Information, Zone TZ_KITCHEN,   1.2500    
 Heating Sizing Factor Information, Zone TZ_LOBBY,   1.2500    
! <Cooling Sizing Factor Information>, Sizing Factor ID, Value
 Cooling Sizing Factor Information, Global,   1.1500    
 Cooling Sizing Factor Information, Zone TZ_DINING,   1.1500    
 Cooling Sizing Factor Information, Zone TZ_KITCHEN,   1.1500    
 Cooling Sizing Factor Information, Zone TZ_LOBBY,   1.1500    
! <Zone Sizing Information>, Zone Name, Load Type, Calc Des Load {W}, User Des Load {W}, Calc Des Air Flow Rate {m3/s}, User Des Air Flow Rate {m3/s}, Design Day Name, Date/Time of Peak, Temperature at Peak {C}, Humidity Ratio at Peak {kgWater/kgDryAir}, Floor Area {m2}, # Occupants, Calc Outdoor Air Flow Rate {m3/s}, Calc DOAS Heat Addition Rate {W}
 Zone Sizing Information, TZ_DINING, Cooling, 4646.41034, 5343.37189, 0.33901, 0.38987, BALTIMORE BLT WASHNGTN INTL ANN CLG .4% CONDNS DB=>MWB, 7/21 16:40:00, 33.22133, 1.44590E-002, 37.16122, 26.80000, 0.25296, 0.00000
 Zone Sizing Information, TZ_DINING, Heating, 3029.49461, 3786.86826, 0.13051, 0.25296, BALTIMORE BLT WASHNGTN INTL ANN HTG 99.6% CONDNS DB, 1/21 05:00:00, -10.60000, 1.52428E-003, 37.16122, 26.80000, 0.25296, 0.00000
 Zone Sizing Information, TZ_KITCHEN, Cooling, 13019.01206, 14971.86387, 0.92641, 1.06537, BALTIMORE BLT WASHNGTN INTL ANN CLG .4% CONDNS DB=>MWB, 7/21 06:00:00, 24.20800, 1.44590E-002, 37.16122, 2.00000, 1.41584E-002, 0.00000
 Zone Sizing Information, TZ_KITCHEN, Heating, 2593.88797, 3242.35996, 0.11174, 0.13967, BALTIMORE BLT WASHNGTN INTL ANN HTG 99.6% CONDNS DB, 1/21 05:00:00, -10.60000, 1.52428E-003, 37.16122, 2.00000, 1.41584E-002, 0.00000
 Zone Sizing Information, TZ_LOBBY, Cooling, 3481.70402, 4003.95962, 0.25382, 0.29189, BALTIMORE BLT WASHNGTN INTL ANN CLG .4% CONDNS DB=>MWB, 7/21 15:40:00, 33.98400, 1.44590E-002, 37.16122, 4.00000, 2.83168E-002, 0.00000
 Zone Sizing Information, TZ_LOBBY, Heating, 5573.45362, 6966.81702, 0.24008, 0.30010, BALTIMORE BLT WASHNGTN INTL ANN HTG 99.6% CONDNS DB, 1/21 24:00:00, -10.60000, 1.52428E-003, 37.16122, 4.00000, 2.83168E-002, 0.00000
! <System Sizing Information>, System Name, Load Type, Peak Load Kind, User Design Capacity, Calc Des Air Flow Rate [m3/s], User Des Air Flow Rate [m3/s], Design Day Name, Date/Time of Peak
 System Sizing Information, 3 ZONE VAV, Cooling, Sensible, 26705.07, 1.71716, 1.71716, BALTIMORE BLT WASHNGTN INTL ANN CLG .4% CONDNS DB=>MWB, 7/21 00:00:00
 System Sizing Information, 3 ZONE VAV, Heating, Sensible, 4920.59, 0.69272, 0.69272, BALTIMORE BLT WASHNGTN INTL ANN HTG 99.6% CONDNS DB, 1/21 09:30:00
! <Component Sizing Information>, Component Type, Component Name, Input Field Description, Value
 Component Sizing Information, AirTerminal:SingleDuct:VAV:Reheat, TZ_DINING VAV TERMINAL, Design Size Maximum Air Flow Rate [m3/s], 0.38987
 Component Sizing Information, AirTerminal:SingleDuct:VAV:Reheat, TZ_DINING VAV TERMINAL, Design Size Constant Minimum Air Flow Fraction, 7.26322E-002
 Component Sizing Information, AirTerminal:SingleDuct:VAV:Reheat, TZ_DINING VAV TERMINAL, User-Specified Constant Minimum Air Flow Fraction, 0.10000
 Component Sizing Information, AirTerminal:SingleDuct:VAV:Reheat, TZ_DINING VAV TERMINAL, Design Size Minimum Air Flow Rate [m3/s], 3.89866E-002
 Component Sizing Information, AirTerminal:SingleDuct:VAV:Reheat, TZ_DINING VAV TERMINAL, Design Size Maximum Flow Fraction during Reheat [], 0.36314
 Component Sizing Information, AirTerminal:SingleDuct:VAV:Reheat, TZ_DINING VAV TERMINAL, User-Specified Maximum Flow Fraction during Reheat [], 0.50000
 Component Sizing Information, AirTerminal:SingleDuct:VAV:Reheat, TZ_DINING VAV TERMINAL, Design Size Maximum Flow per Zone Floor Area during Reheat [m3/s-m2], 5.24561E-003
 Component Sizing Information, AirTerminal:SingleDuct:VAV:Reheat, TZ_DINING VAV TERMINAL, Design Size Maximum Reheat Water Flow Rate [m3/s], 1.18612E-004
 Component Sizing Information, AirTerminal:SingleDuct:VAV:Reheat, TZ_DINING VAV TERMINAL, Design Size Reheat Coil Sizing Air Volume Flow Rate [m3/s], 0.16314
 Component Sizing Information, AirTerminal:SingleDuct:VAV:Reheat, TZ_DINING VAV TERMINAL, Design Size Reheat Coil Sizing Inlet Air Temperature [C], 12.77778
 Component Sizing Information, AirTerminal:SingleDuct:VAV:Reheat, TZ_DINING VAV TERMINAL, Design Size Reheat Coil Sizing Inlet Air Humidity Ratio [kgWater/kgDryAir], 8.00000E-003
 Component Sizing Information, Coil:Heating:Water, TZ_DINING REHEAT COIL, Design Size Rated Capacity [W], 5422.79164
 Component Sizing Information, Coil:Heating:Water, TZ_DINING REHEAT COIL, Design Size Maximum Water Flow Rate [m3/s], 1.18612E-004
 Component Sizing Information, Coil:Heating:Water, TZ_DINING REHEAT COIL, Design Size U-Factor Times Area Value [W/K], 385.40178
! <Water Heating Coil Capacity Information>,Component Type,Name,Nominal Total Capacity {W}
Water Heating Coil Capacity Information,Coil:Heating:Water,TZ_DINING REHEAT COIL,9861.61
 Component Sizing Information, AirTerminal:SingleDuct:VAV:Reheat, TZ_KITCHEN VAV TERMINAL, Design Size Maximum Air Flow Rate [m3/s], 1.06537
 Component Sizing Information, AirTerminal:SingleDuct:VAV:Reheat, TZ_KITCHEN VAV TERMINAL, Design Size Constant Minimum Air Flow Fraction, 2.65794E-002
 Component Sizing Information, AirTerminal:SingleDuct:VAV:Reheat, TZ_KITCHEN VAV TERMINAL, User-Specified Constant Minimum Air Flow Fraction, 0.10000
 Component Sizing Information, AirTerminal:SingleDuct:VAV:Reheat, TZ_KITCHEN VAV TERMINAL, Design Size Minimum Air Flow Rate [m3/s], 0.10654
 Component Sizing Information, AirTerminal:SingleDuct:VAV:Reheat, TZ_KITCHEN VAV TERMINAL, Design Size Maximum Flow Fraction during Reheat [], 0.30000
 Component Sizing Information, AirTerminal:SingleDuct:VAV:Reheat, TZ_KITCHEN VAV TERMINAL, User-Specified Maximum Flow Fraction during Reheat [], 0.50000
 Component Sizing Information, AirTerminal:SingleDuct:VAV:Reheat, TZ_KITCHEN VAV TERMINAL, Design Size Maximum Flow per Zone Floor Area during Reheat [m3/s-m2], 1.43344E-002
 Component Sizing Information, AirTerminal:SingleDuct:VAV:Reheat, TZ_KITCHEN VAV TERMINAL, Design Size Maximum Reheat Water Flow Rate [m3/s], 1.01527E-004
 Component Sizing Information, AirTerminal:SingleDuct:VAV:Reheat, TZ_KITCHEN VAV TERMINAL, Design Size Reheat Coil Sizing Air Volume Flow Rate [m3/s], 0.13967
 Component Sizing Information, AirTerminal:SingleDuct:VAV:Reheat, TZ_KITCHEN VAV TERMINAL, Design Size Reheat Coil Sizing Inlet Air Temperature [C], 12.77778
 Component Sizing Information, AirTerminal:SingleDuct:VAV:Reheat, TZ_KITCHEN VAV TERMINAL, Design Size Reheat Coil Sizing Inlet Air Humidity Ratio [kgWater/kgDryAir], 8.00000E-003
 Component Sizing Information, Coil:Heating:Water, TZ_KITCHEN REHEAT COIL, Design Size Rated Capacity [W], 4641.70545
 Component Sizing Information, Coil:Heating:Water, TZ_KITCHEN REHEAT COIL, Design Size Maximum Water Flow Rate [m3/s], 1.01527E-004
 Component Sizing Information, Coil:Heating:Water, TZ_KITCHEN REHEAT COIL, Design Size U-Factor Times Area Value [W/K], 329.78316
Water Heating Coil Capacity Information,Coil:Heating:Water,TZ_KITCHEN REHEAT COIL,8441.17
 Component Sizing Information, AirTerminal:SingleDuct:VAV:Reheat, TZ_LOBBY VAV TERMINAL, Design Size Maximum Air Flow Rate [m3/s], 0.30010
 Component Sizing Information, AirTerminal:SingleDuct:VAV:Reheat, TZ_LOBBY VAV TERMINAL, Design Size Constant Minimum Air Flow Fraction, 9.43570E-002
 Component Sizing Information, AirTerminal:SingleDuct:VAV:Reheat, TZ_LOBBY VAV TERMINAL, User-Specified Constant Minimum Air Flow Fraction, 0.10000
 Component Sizing Information, AirTerminal:SingleDuct:VAV:Reheat, TZ_LOBBY VAV TERMINAL, Design Size Minimum Air Flow Rate [m3/s], 3.00103E-002
 Component Sizing Information, AirTerminal:SingleDuct:VAV:Reheat, TZ_LOBBY VAV TERMINAL, Design Size Maximum Flow Fraction during Reheat [], 0.47176
 Component Sizing Information, AirTerminal:SingleDuct:VAV:Reheat, TZ_LOBBY VAV TERMINAL, User-Specified Maximum Flow Fraction during Reheat [], 0.50000
 Component Sizing Information, AirTerminal:SingleDuct:VAV:Reheat, TZ_LOBBY VAV TERMINAL, Design Size Maximum Flow per Zone Floor Area during Reheat [m3/s-m2], 4.03786E-003
 Component Sizing Information, AirTerminal:SingleDuct:VAV:Reheat, TZ_LOBBY VAV TERMINAL, Design Size Maximum Reheat Water Flow Rate [m3/s], 2.18208E-004
 Component Sizing Information, AirTerminal:SingleDuct:VAV:Reheat, TZ_LOBBY VAV TERMINAL, Design Size Reheat Coil Sizing Air Volume Flow Rate [m3/s], 0.30010
 Component Sizing Information, AirTerminal:SingleDuct:VAV:Reheat, TZ_LOBBY VAV TERMINAL, Design Size Reheat Coil Sizing Inlet Air Temperature [C], 12.77778
 Component Sizing Information, AirTerminal:SingleDuct:VAV:Reheat, TZ_LOBBY VAV TERMINAL, Design Size Reheat Coil Sizing Inlet Air Humidity Ratio [kgWater/kgDryAir], 8.00000E-003
 Component Sizing Information, Coil:Heating:Water, TZ_LOBBY REHEAT COIL, Design Size Rated Capacity [W], 9976.22758
 Component Sizing Information, Coil:Heating:Water, TZ_LOBBY REHEAT COIL, Design Size Maximum Water Flow Rate [m3/s], 2.18208E-004
 Component Sizing Information, Coil:Heating:Water, TZ_LOBBY REHEAT COIL, Design Size U-Factor Times Area Value [W/K], 709.07920
Water Heating Coil Capacity Information,Coil:Heating:Water,TZ_LOBBY REHEAT COIL,18142.25
 Component Sizing Information, AirLoopHVAC, 3 ZONE VAV, Sum of Air Terminal Maximum Heating Flow Rates [m3/s], 0.87767
 Component Sizing Information, AirLoopHVAC, 3 ZONE VAV, Sum of Air Terminal Minimum Heating Flow Rates [m3/s], 0.17553
 Component Sizing Information, AirLoopHVAC, 3 ZONE VAV, Sum of Air Terminal Maximum Flow Rates [m3/s], 1.75534
 Component Sizing Information, AirLoopHVAC, 3 ZONE VAV, Adjusted Heating Design Air Flow Rate [m3/s], 0.69272
 Component Sizing Information, AirLoopHVAC, 3 ZONE VAV, Adjusted Cooling Design Air Flow Rate [m3/s], 1.71716
 Component Sizing Information, AirLoopHVAC, 3 ZONE VAV, Adjusted Main Design Air Flow Rate [m3/s], 1.71716
 Component Sizing Information, AirLoopHVAC, 3 ZONE VAV, User Heating Air Flow Ratio [], 0.30000
 Component Sizing Information, AirLoopHVAC, 3 ZONE VAV, Calculated Heating Air Flow Ratio [], 0.40341
 Component Sizing Information, AirLoopHVAC, 3 ZONE VAV, Design Supply Air Flow Rate [m3/s], 1.71716
!<Controller:MechanicalVentilation>,Name,Availability Schedule Name,Demand Controlled Ventilation {Yes/No},System Outdoor Air Method,Zone Maximum Outdoor Air Fraction,Number of Zones,Zone Name,DSOA Name,DSZAD Name
 Controller:MechanicalVentilation,3 ZONE VAV VENT CONTROLLER,ALWAYS ON DISCRETE,No,VentilationRateProcedure,1.00,3,TZ_DINING,189.1-2009 - QCKSRVREST - DINING - CZ4-8 VENTILATION,TZ_DINING DESIGN SPEC ZONE AIR DIST,TZ_KITCHEN,189.1-2009 - QCKSRVREST - KITCHEN - CZ4-8 VENTILATION,TZ_KITCHEN DESIGN SPEC ZONE AIR DIST,TZ_LOBBY,189.1-2009 - OFFICE - LOBBY - CZ4-8 VENTILATION,TZ_LOBBY DESIGN SPEC ZONE AIR DIST
 Component Sizing Information, Controller:OutdoorAir, 3 ZONE VAV OA CONTROLLER, Maximum Outdoor Air Flow Rate [m3/s], 1.71716
 Component Sizing Information, Controller:OutdoorAir, 3 ZONE VAV OA CONTROLLER, Minimum Outdoor Air Flow Rate [m3/s], 0.29544
 Component Sizing Information, Coil:Cooling:Water, 3 ZONE VAV CLG COIL, Design Size Design Inlet Air Temperature [C], 25.71630
 Component Sizing Information, Coil:Cooling:Water, 3 ZONE VAV CLG COIL, Design Size Design Inlet Water Temperature [C], 6.66667
 Component Sizing Information, Coil:Cooling:Water, 3 ZONE VAV CLG COIL, Design Size Design Outlet Air Temperature [C], 11.46669
 Component Sizing Information, Coil:Cooling:Water, 3 ZONE VAV CLG COIL, Design Size Design Inlet Air Humidity Ratio, 9.89149E-003
 Component Sizing Information, Coil:Cooling:Water, 3 ZONE VAV CLG COIL, Design Size Design Outlet Air Humidity Ratio, 8.50000E-003
 Component Sizing Information, Coil:Cooling:Water, 3 ZONE VAV CLG COIL, Design Size Design Coil Load [W], 37211.28975
 Component Sizing Information, Coil:Cooling:Water, 3 ZONE VAV CLG COIL, Design Size Design Water Flow Rate [m3/s], 1.57992E-003
 Component Sizing Information, Coil:Cooling:Water, 3 ZONE VAV CLG COIL, Design Size Design Air Flow Rate [m3/s], 1.71716
! <Water Cooling Coil Capacity Information>,Component Type,Name,Nominal Total Capacity {W},Nominal Sensible Capacity {W},Nominal Latent Capacity {W},Nominal Sensible Heat Ratio, Nominal Coil UA Value {W/C}, Nominal Coil Surface Area {m2}
Water Cooling Coil Capacity Information,Coil:Cooling:Water,3 ZONE VAV CLG COIL,45428.52,31003.27,14425.25,0.68,5208.97,52.83
 Component Sizing Information, Coil:Heating:Water, 3 ZONE VAV MAIN HTG COIL, Design Size Rated Capacity [W], 6139.68876
 Component Sizing Information, Coil:Heating:Water, 3 ZONE VAV MAIN HTG COIL, Design Size Maximum Water Flow Rate [m3/s], 1.34292E-004
 Component Sizing Information, Coil:Heating:Water, 3 ZONE VAV MAIN HTG COIL, Design Size U-Factor Times Area Value [W/K], 183.05918
Water Heating Coil Capacity Information,Coil:Heating:Water,3 ZONE VAV MAIN HTG COIL,8776.76
 Component Sizing Information, Fan:VariableVolume, 3 ZONE VAV FAN, Design Size Maximum Flow Rate [m3/s], 1.71716
 Component Sizing Information, Controller:WaterCoil, 3 ZONE VAV CLG COIL CONTROLLER, Maximum Actuated Flow [m3/s], 1.57992E-003
 Component Sizing Information, Controller:WaterCoil, 3 ZONE VAV CLG COIL CONTROLLER, Controller Convergence Tolerance, 3.01402E-004
 Component Sizing Information, Controller:WaterCoil, 3 ZONE VAV MAIN HTG COIL CONTROLLER, Maximum Actuated Flow [m3/s], 1.34292E-004
 Component Sizing Information, PlantLoop, CHILLED WATER LOOP, Maximum Loop Flow Rate [m3/s], 1.57992E-003
 Component Sizing Information, PlantLoop, CHILLED WATER LOOP, Plant Loop Volume [m3], 0.18959
 Component Sizing Information, Pump:VariableSpeed, CHILLED WATER LOOP PUMP, Design Flow Rate [m3/s], 1.57992E-003
 Component Sizing Information, Pump:VariableSpeed, CHILLED WATER LOOP PUMP, Design Power Consumption [W], 403.63121
 Component Sizing Information, Chiller:Electric:EIR, NREL ZNE READY 2017    CHILLER 0, Design Size Reference Chilled Water Flow Rate [m3/s], 1.57992E-003
 Component Sizing Information, Chiller:Electric:EIR, NREL ZNE READY 2017    CHILLER 0, Design Size Reference Capacity [W], 37211.28975
 Component Sizing Information, Chiller:Electric:EIR, NREL ZNE READY 2017    CHILLER 0, Design Size Reference Condenser Fluid Flow Rate  [m3/s], 4.24209
! <Chiller Standard Rating Information>, Component Type, Component Name, IPLV in SI Units {W/W}, IPLV in IP Units {Btu/W-h}
 Chiller Standard Rating Information, Chiller:Electric:EIR, NREL ZNE READY 2017    CHILLER 0, 7.70, 26.26
 Component Sizing Information, PlantLoop, HOT WATER LOOP, Maximum Loop Flow Rate [m3/s], 5.72640E-004
 Component Sizing Information, PlantLoop, HOT WATER LOOP, Plant Loop Volume [m3], 6.87168E-002
 Component Sizing Information, Pump:VariableSpeed, HOT WATER LOOP PUMP, Design Flow Rate [m3/s], 5.72640E-004
 Component Sizing Information, Pump:VariableSpeed, HOT WATER LOOP PUMP, Design Power Consumption [W], 146.29566
 Component Sizing Information, Boiler:HotWater, BOILER, Design Size Nominal Capacity [W], 26180.41343
 Component Sizing Information, Boiler:HotWater, BOILER, Design Size Design Water Flow Rate [m3/s], 5.72640E-004
! <Environment>,Environment Name,Environment Type, Start Date, End Date, Start DayOfWeek, Duration {#days}, Source:Start DayOfWeek,  Use Daylight Saving, Use Holidays, Apply Weekend Holiday Rule,  Use Rain Values, Use Snow Values
! <Environment:Special Days>, Special Day Name, Special Day Type, Source, Start Date, Duration {#days}
! <Environment:Daylight Saving>, Daylight Saving Indicator, Source, Start Date, End Date
! <Environment:WarmupDays>, NumberofWarmupDays
Environment,BALTIMORE BLT WASHNGTN INTL ANN CLG .4% CONDNS DB=>MWB,SizingPeriod:DesignDay,07/21,07/21,SummerDesignDay,1,N/A,N/A,N/A,N/A,N/A,N/A
Environment:Daylight Saving,No,SizingPeriod:DesignDay
! <Environment:Design Day Data>, Max Dry-Bulb Temp {C}, Temp Range {dC}, Temp Range Ind Type, Hum Ind Value at Max Temp, Hum Ind Type,Pressure {Pa}, Wind Direction {deg CW from N}, Wind Speed {m/s}, Clearness, Rain, Snow
! <Environment:Design Day Misc>,DayOfYear,ASHRAE A Coeff,ASHRAE B Coeff,ASHRAE C Coeff,Solar Constant-Annual Variation,Eq of Time {minutes}, Solar Declination Angle {deg}, Solar Model
Environment:Design Day Data,34.40,10.40,DefaultMultipliers,100786,280,4.6,0.00,No,No
Environment:Design Day Misc,202,1084.4,0.2082,0.1365,1.0,-6.23,20.6,ASHRAETau
Environment:WarmupDays,  6
! <Tabular Report>,Style,Unit Conversion
Tabular Report,HTML,None
! <Warmup Convergence Information>,Zone Name,Environment Type/Name,Average Warmup Temperature Difference {deltaC},Std Dev Warmup Temperature Difference {deltaC},Max Temperature Pass/Fail Convergence,Min Temperature Pass/Fail Convergence,Average Warmup Load Difference {W},Std Dev Warmup Load Difference {W},Heating Load Pass/Fail Convergence,Cooling Load Pass/Fail Convergence
 Warmup Convergence Information,TZ_DINING,SizingPeriod: BALTIMORE BLT WASHNGTN INTL ANN CLG .4% CONDNS DB=>MWB,0.1007806622,0.4916222674,Pass,Pass,3.6866825520E-002,0.2772139691,Pass,Pass
 Warmup Convergence Information,TZ_KITCHEN,SizingPeriod: BALTIMORE BLT WASHNGTN INTL ANN CLG .4% CONDNS DB=>MWB,0.1136250616,0.5913060601,Pass,Pass,4.2394006037E-003,1.8030736386E-002,Pass,Pass
 Warmup Convergence Information,TZ_LOBBY,SizingPeriod: BALTIMORE BLT WASHNGTN INTL ANN CLG .4% CONDNS DB=>MWB,4.1577531809E-002,6.1109354764E-002,Pass,Pass,4.1170127148E-002,0.1242373725,Pass,Pass
 Warmup Convergence Information,TZ_PLENUM,SizingPeriod: BALTIMORE BLT WASHNGTN INTL ANN CLG .4% CONDNS DB=>MWB,1.8616603718E-002,9.4824109269E-003,Pass,Pass,0.0000000000,0.0000000000,Pass,Pass
Environment,BALTIMORE BLT WASHNGTN INTL ANN CLG .4% CONDNS DP=>MDB,SizingPeriod:DesignDay,07/21,07/21,SummerDesignDay,1,N/A,N/A,N/A,N/A,N/A,N/A
Environment:Daylight Saving,No,SizingPeriod:DesignDay
Environment:Design Day Data,27.80,10.40,DefaultMultipliers,100786,280,4.6,0.00,No,No
Environment:Design Day Misc,202,1084.4,0.2082,0.1365,1.0,-6.23,20.6,ASHRAETau
Environment:WarmupDays,  6
 Warmup Convergence Information,TZ_DINING,SizingPeriod: BALTIMORE BLT WASHNGTN INTL ANN CLG .4% CONDNS DP=>MDB,9.9182740536E-002,0.4751264937,Pass,Pass,3.1850946783E-002,0.2511051798,Pass,Pass
 Warmup Convergence Information,TZ_KITCHEN,SizingPeriod: BALTIMORE BLT WASHNGTN INTL ANN CLG .4% CONDNS DP=>MDB,0.1205136373,0.6158485460,Pass,Pass,5.1924712161E-003,2.0877406979E-002,Pass,Pass
 Warmup Convergence Information,TZ_LOBBY,SizingPeriod: BALTIMORE BLT WASHNGTN INTL ANN CLG .4% CONDNS DP=>MDB,5.9087723334E-002,0.1280723755,Pass,Pass,3.3983200624E-002,4.8477586371E-002,Pass,Pass
 Warmup Convergence Information,TZ_PLENUM,SizingPeriod: BALTIMORE BLT WASHNGTN INTL ANN CLG .4% CONDNS DP=>MDB,2.0548291394E-002,1.0145400753E-002,Pass,Pass,0.0000000000,0.0000000000,Pass,Pass
Environment,BALTIMORE BLT WASHNGTN INTL ANN CLG .4% CONDNS ENTH=>MDB,SizingPeriod:DesignDay,07/21,07/21,SummerDesignDay,1,N/A,N/A,N/A,N/A,N/A,N/A
Environment:Daylight Saving,No,SizingPeriod:DesignDay
Environment:Design Day Data,31.70,10.40,DefaultMultipliers,100786,280,4.6,0.00,No,No
Environment:Design Day Misc,202,1084.4,0.2082,0.1365,1.0,-6.23,20.6,ASHRAETau
Environment:WarmupDays,  6
 Warmup Convergence Information,TZ_DINING,SizingPeriod: BALTIMORE BLT WASHNGTN INTL ANN CLG .4% CONDNS ENTH=>MDB,0.1920517630,0.4792876811,Pass,Pass,3.9536915195E-002,0.2716589783,Pass,Pass
 Warmup Convergence Information,TZ_KITCHEN,SizingPeriod: BALTIMORE BLT WASHNGTN INTL ANN CLG .4% CONDNS ENTH=>MDB,0.2149017586,0.5045853228,Pass,Pass,5.9003245272E-003,1.5923609452E-002,Pass,Pass
 Warmup Convergence Information,TZ_LOBBY,SizingPeriod: BALTIMORE BLT WASHNGTN INTL ANN CLG .4% CONDNS ENTH=>MDB,0.1151036874,0.1146235042,Pass,Pass,4.2624811331E-002,0.1459351710,Pass,Pass
 Warmup Convergence Information,TZ_PLENUM,SizingPeriod: BALTIMORE BLT WASHNGTN INTL ANN CLG .4% CONDNS ENTH=>MDB,2.5728117173E-002,1.3324603023E-002,Pass,Pass,0.0000000000,0.0000000000,Pass,Pass
Environment,BALTIMORE BLT WASHNGTN INTL ANN CLG .4% CONDNS WB=>MDB,SizingPeriod:DesignDay,07/21,07/21,SummerDesignDay,1,N/A,N/A,N/A,N/A,N/A,N/A
Environment:Daylight Saving,No,SizingPeriod:DesignDay
Environment:Design Day Data,31.40,10.40,DefaultMultipliers,100786,280,4.6,0.00,No,No
Environment:Design Day Misc,202,1084.4,0.2082,0.1365,1.0,-6.23,20.6,ASHRAETau
Environment:WarmupDays,  6
 Warmup Convergence Information,TZ_DINING,SizingPeriod: BALTIMORE BLT WASHNGTN INTL ANN CLG .4% CONDNS WB=>MDB,0.1202628008,0.4872874078,Pass,Pass,3.7253206866E-002,0.2672107362,Pass,Pass
 Warmup Convergence Information,TZ_KITCHEN,SizingPeriod: BALTIMORE BLT WASHNGTN INTL ANN CLG .4% CONDNS WB=>MDB,0.1379124859,0.5415904194,Pass,Pass,4.7142211744E-003,1.7829617583E-002,Pass,Pass
 Warmup Convergence Information,TZ_LOBBY,SizingPeriod: BALTIMORE BLT WASHNGTN INTL ANN CLG .4% CONDNS WB=>MDB,5.2414251058E-002,7.3580004357E-002,Pass,Pass,4.0381261633E-002,0.1062973747,Pass,Pass
 Warmup Convergence Information,TZ_PLENUM,SizingPeriod: BALTIMORE BLT WASHNGTN INTL ANN CLG .4% CONDNS WB=>MDB,2.0225674748E-002,1.0445754541E-002,Pass,Pass,0.0000000000,0.0000000000,Pass,Pass
Environment,BALTIMORE BLT WASHNGTN INTL ANN HTG 99.6% CONDNS DB,SizingPeriod:DesignDay,01/21,01/21,WinterDesignDay,1,N/A,N/A,N/A,N/A,N/A,N/A
Environment:Daylight Saving,No,SizingPeriod:DesignDay
Environment:Design Day Data,-10.60,0.00,DefaultMultipliers,100786,290,3.9,0.00,No,No
Environment:Design Day Misc, 21,1229.0,0.1415,5.7310E-002,1.0,-11.15,-20.1,ASHRAEClearSky
Environment:WarmupDays,  6
 Warmup Convergence Information,TZ_DINING,SizingPeriod: BALTIMORE BLT WASHNGTN INTL ANN HTG 99.6% CONDNS DB,1.0499975989E-002,2.9667814729E-002,Pass,Pass,1.2511666348E-003,3.7310692525E-003,Pass,Pass
 Warmup Convergence Information,TZ_KITCHEN,SizingPeriod: BALTIMORE BLT WASHNGTN INTL ANN HTG 99.6% CONDNS DB,9.0656228850E-003,2.7694305826E-002,Pass,Pass,4.6998715928E-003,1.6991817264E-002,Pass,Pass
 Warmup Convergence Information,TZ_LOBBY,SizingPeriod: BALTIMORE BLT WASHNGTN INTL ANN HTG 99.6% CONDNS DB,1.6289497506E-002,6.7048077954E-002,Pass,Pass,8.1516265708E-004,3.8548374704E-003,Pass,Pass
 Warmup Convergence Information,TZ_PLENUM,SizingPeriod: BALTIMORE BLT WASHNGTN INTL ANN HTG 99.6% CONDNS DB,9.5573722629E-004,5.4885573504E-004,Pass,Pass,0.0000000000,0.0000000000,Pass,Pass
! <Program Control Information:Threads/Parallel Sims>, Threading Supported,Maximum Number of Threads, Env Set Threads (OMP_NUM_THREADS), EP Env Set Threads (EP_OMP_NUM_THREADS), IDF Set Threads, Number of Threads Used (Interior Radiant Exchange), Number Nominal Surfaces, Number Parallel Sims
Program Control:Threads/Parallel Sims, No,1, N/A, N/A, N/A, N/A, N/A, N/A
End of Data
