Program Version,EnergyPlus, Version 9.1.0-08d2e308bb, YMD=2019.04.09 23:03,
   ************* Beginning Zone Sizing Calculations
   ** Warning ** ProcessScheduleInput: Schedule:Day:Interval="ECONOMIZER MAX OA FRACTION 70 PCT DEFAULT", Blank Schedule Type Limits Name input -- will not be validated.
   ** Warning ** ProcessScheduleInput: Schedule:Day:Interval="OFFICEMEDIUM HVACOPERATIONSCHD DEFAULT", Blank Schedule Type Limits Name input -- will not be validated.
   ** Warning ** ProcessScheduleInput: Schedule:Day:Interval="OFFICEMEDIUM HVACOPERATIONSCHD SMRDSN|WKDY DAY", Blank Schedule Type Limits Name input -- will not be validated.
   ** Warning ** ProcessScheduleInput: Schedule:Day:Interval="OFFICEMEDIUM HVACOPERATIONSCHD SUMMER DESIGN DAY", Blank Schedule Type Limits Name input -- will not be validated.
   ** Warning ** ProcessScheduleInput: Schedule:Day:Interval="OFFICEMEDIUM HVACOPERATIONSCHD WINTER DESIGN DAY", Blank Schedule Type Limits Name input -- will not be validated.
   ** Warning ** ProcessScheduleInput: Schedule:Day:Interval="OFFICEMEDIUM HVACOPERATIONSCHD WNTRDSN|SAT DAY", Blank Schedule Type Limits Name input -- will not be validated.
   ** Warning ** ProcessScheduleInput: Schedule:Year="OFFICEMEDIUM HVACOPERATIONSCHD", Blank Schedule Type Limits Name input -- will not be validated.
   ** Warning ** ProcessScheduleInput: Schedule:Constant="ALWAYS ON CONTINUOUS", Blank Schedule Type Limits Name input -- will not be validated.
   ** Warning ** CheckUsedConstructions: There are 9 nominally unused constructions in input.
   **   ~~~   ** For explicit details on each unused construction, use Output:Diagnostics,DisplayExtraWarnings;
   ** Warning ** GetDaylightingControls: Fraction of Zone controlled by the Daylighting reference points is < 1.0.
   **   ~~~   ** ..discovered in "Daylighting:Controls" for Zone="PERIMETER_BOT_ZN_1 ZN", only 0.52 of the zone is controlled.
   ** Warning ** GetDaylightingControls: Fraction of Zone controlled by the Daylighting reference points is < 1.0.
   **   ~~~   ** ..discovered in "Daylighting:Controls" for Zone="PERIMETER_BOT_ZN_2 ZN", only 0.52 of the zone is controlled.
   ** Warning ** GetDaylightingControls: Fraction of Zone controlled by the Daylighting reference points is < 1.0.
   **   ~~~   ** ..discovered in "Daylighting:Controls" for Zone="PERIMETER_BOT_ZN_3 ZN", only 0.52 of the zone is controlled.
   ** Warning ** GetDaylightingControls: Fraction of Zone controlled by the Daylighting reference points is < 1.0.
   **   ~~~   ** ..discovered in "Daylighting:Controls" for Zone="PERIMETER_BOT_ZN_4 ZN", only 0.52 of the zone is controlled.
   ** Warning ** GetDaylightingControls: Fraction of Zone controlled by the Daylighting reference points is < 1.0.
   **   ~~~   ** ..discovered in "Daylighting:Controls" for Zone="PERIMETER_MID_ZN_1 ZN", only 0.52 of the zone is controlled.
   ** Warning ** GetDaylightingControls: Fraction of Zone controlled by the Daylighting reference points is < 1.0.
   **   ~~~   ** ..discovered in "Daylighting:Controls" for Zone="PERIMETER_MID_ZN_2 ZN", only 0.52 of the zone is controlled.
   ** Warning ** GetDaylightingControls: Fraction of Zone controlled by the Daylighting reference points is < 1.0.
   **   ~~~   ** ..discovered in "Daylighting:Controls" for Zone="PERIMETER_MID_ZN_3 ZN", only 0.52 of the zone is controlled.
   ** Warning ** GetDaylightingControls: Fraction of Zone controlled by the Daylighting reference points is < 1.0.
   **   ~~~   ** ..discovered in "Daylighting:Controls" for Zone="PERIMETER_MID_ZN_4 ZN", only 0.52 of the zone is controlled.
   ** Warning ** GetDaylightingControls: Fraction of Zone controlled by the Daylighting reference points is < 1.0.
   **   ~~~   ** ..discovered in "Daylighting:Controls" for Zone="PERIMETER_TOP_ZN_1 ZN", only 0.52 of the zone is controlled.
   ** Warning ** GetDaylightingControls: Fraction of Zone controlled by the Daylighting reference points is < 1.0.
   **   ~~~   ** ..discovered in "Daylighting:Controls" for Zone="PERIMETER_TOP_ZN_2 ZN", only 0.52 of the zone is controlled.
   ** Warning ** GetDaylightingControls: Fraction of Zone controlled by the Daylighting reference points is < 1.0.
   **   ~~~   ** ..discovered in "Daylighting:Controls" for Zone="PERIMETER_TOP_ZN_3 ZN", only 0.52 of the zone is controlled.
   ** Warning ** GetDaylightingControls: Fraction of Zone controlled by the Daylighting reference points is < 1.0.
   **   ~~~   ** ..discovered in "Daylighting:Controls" for Zone="PERIMETER_TOP_ZN_4 ZN", only 0.52 of the zone is controlled.
   ************* Beginning System Sizing Calculations
   ** Warning ** AirConditioner:VariableRefrigerantFlow = "5 ZONE VRF SYSTEM", Maximum Outdoor Temperature in Heat Recovery Mode is greater than the maximum temperature in heat pump mode.
   **   ~~~   ** ...Maximum Outdoor Temperature in Heat Recovery Mode = 27.20 C
   **   ~~~   ** ...Maximum Outdoor Temperature in Cooling Mode = 50.00 C
   **   ~~~   ** ...Maximum Outdoor Temperature in Heating Mode = 16.10 C
   **   ~~~   ** ...Maximum Outdoor Temperature in Heat Recovery Mode reset to lesser of cooling or heating minimum temperature and simulation continues.
   **   ~~~   ** ... adjusted Maximum Outdoor Temperature in Heat Recovery Mode = 16.10 C
   ** Warning ** AirConditioner:VariableRefrigerantFlow = "5 ZONE VRF SYSTEM 1", Maximum Outdoor Temperature in Heat Recovery Mode is greater than the maximum temperature in heat pump mode.
   **   ~~~   ** ...Maximum Outdoor Temperature in Heat Recovery Mode = 27.20 C
   **   ~~~   ** ...Maximum Outdoor Temperature in Cooling Mode = 50.00 C
   **   ~~~   ** ...Maximum Outdoor Temperature in Heating Mode = 16.10 C
   **   ~~~   ** ...Maximum Outdoor Temperature in Heat Recovery Mode reset to lesser of cooling or heating minimum temperature and simulation continues.
   **   ~~~   ** ... adjusted Maximum Outdoor Temperature in Heat Recovery Mode = 16.10 C
   ** Warning ** AirConditioner:VariableRefrigerantFlow = "5 ZONE VRF SYSTEM 2", Maximum Outdoor Temperature in Heat Recovery Mode is greater than the maximum temperature in heat pump mode.
   **   ~~~   ** ...Maximum Outdoor Temperature in Heat Recovery Mode = 27.20 C
   **   ~~~   ** ...Maximum Outdoor Temperature in Cooling Mode = 50.00 C
   **   ~~~   ** ...Maximum Outdoor Temperature in Heating Mode = 16.10 C
   **   ~~~   ** ...Maximum Outdoor Temperature in Heat Recovery Mode reset to lesser of cooling or heating minimum temperature and simulation continues.
   **   ~~~   ** ... adjusted Maximum Outdoor Temperature in Heat Recovery Mode = 16.10 C
   ** Warning ** GetDXCoils: Coil:Heating:DX:SingleSpeed="5 ZONE DOAS HTG COIL" curve values
   **   ~~~   ** ... Defrost Energy Input Ratio Function of Temperature Curve Name = 5 ZONE DOAS HTG COIL DEFROST EIR FUNC OF TEMP CURVE output is not equal to 1.0 (+ or - 10%) at rated conditions.
   **   ~~~   ** ... Curve output at rated conditions = 0.787
   ** Warning ** GetDXCoils: Coil:Heating:DX:SingleSpeed="5 ZONE DOAS 1 HTG COIL" curve values
   **   ~~~   ** ... Defrost Energy Input Ratio Function of Temperature Curve Name = 5 ZONE DOAS 1 HTG COIL DEFROST EIR FUNC OF TEMP CURVE output is not equal to 1.0 (+ or - 10%) at rated conditions.
   **   ~~~   ** ... Curve output at rated conditions = 0.787
   ** Warning ** GetDXCoils: Coil:Heating:DX:SingleSpeed="5 ZONE DOAS 2 HTG COIL" curve values
   **   ~~~   ** ... Defrost Energy Input Ratio Function of Temperature Curve Name = 5 ZONE DOAS 2 HTG COIL DEFROST EIR FUNC OF TEMP CURVE output is not equal to 1.0 (+ or - 10%) at rated conditions.
   **   ~~~   ** ... Curve output at rated conditions = 0.787
   ************* Beginning Plant Sizing Calculations
   ** Warning ** CalcTwoSpeedDXCoilStandardRating: Did not find an appropriate fan associated with DX coil named = "5 ZONE DOAS 2SPD DX CLG COIL". Standard Ratings will not be calculated.
   ** Warning ** CalcTwoSpeedDXCoilStandardRating: Did not find an appropriate fan associated with DX coil named = "5 ZONE DOAS 1 2SPD DX CLG COIL". Standard Ratings will not be calculated.
   ** Warning ** CalcTwoSpeedDXCoilStandardRating: Did not find an appropriate fan associated with DX coil named = "5 ZONE DOAS 2 2SPD DX CLG COIL". Standard Ratings will not be calculated.
   ** Warning ** AirConditioner:VariableRefrigerantFlow "5 ZONE VRF SYSTEM".
   **   ~~~   ** ...InitVRF: VRF Heat Pump Min/Max Operating Temperature in Heating Mode Limits have been exceeded and VRF system is disabled.
   **   ~~~   ** ... Outdoor Unit Inlet Air Temperature             = 24.585
   **   ~~~   ** ... Heating Minimum Outdoor Unit Inlet Temperature = -25.000
   **   ~~~   ** ... Heating Maximum Outdoor Unit Inlet Temperature = 16.100
   **   ~~~   ** ... Check VRF Heat Pump Min/Max Outdoor Temperature in Heating Mode limits.
   **   ~~~   **  During Warmup, Environment=CHICAGO OHARE INTL AP ANN CLG .4% CONDNS DB=>MWB, at Simulation time=07/21 00:00 - 00:10
   ** Warning ** AirConditioner:VariableRefrigerantFlow "5 ZONE VRF SYSTEM 1".
   **   ~~~   ** ...InitVRF: VRF Heat Pump Min/Max Operating Temperature in Heating Mode Limits have been exceeded and VRF system is disabled.
   **   ~~~   ** ... Outdoor Unit Inlet Air Temperature             = 24.585
   **   ~~~   ** ... Heating Minimum Outdoor Unit Inlet Temperature = -25.000
   **   ~~~   ** ... Heating Maximum Outdoor Unit Inlet Temperature = 16.100
   **   ~~~   ** ... Check VRF Heat Pump Min/Max Outdoor Temperature in Heating Mode limits.
   **   ~~~   **  During Warmup, Environment=CHICAGO OHARE INTL AP ANN CLG .4% CONDNS DB=>MWB, at Simulation time=07/21 00:00 - 00:10
   ** Warning ** AirConditioner:VariableRefrigerantFlow "5 ZONE VRF SYSTEM 2".
   **   ~~~   ** ...InitVRF: VRF Heat Pump Min/Max Operating Temperature in Heating Mode Limits have been exceeded and VRF system is disabled.
   **   ~~~   ** ... Outdoor Unit Inlet Air Temperature             = 24.585
   **   ~~~   ** ... Heating Minimum Outdoor Unit Inlet Temperature = -25.000
   **   ~~~   ** ... Heating Maximum Outdoor Unit Inlet Temperature = 16.100
   **   ~~~   ** ... Check VRF Heat Pump Min/Max Outdoor Temperature in Heating Mode limits.
   **   ~~~   **  During Warmup, Environment=CHICAGO OHARE INTL AP ANN CLG .4% CONDNS DB=>MWB, at Simulation time=07/21 00:00 - 00:10
   ** Warning ** AirConditioner:VariableRefrigerantFlow "5 ZONE VRF SYSTEM".
   **   ~~~   ** ...InitVRF: VRF Heat Pump Min/Max Operating Temperature in Cooling Mode Limits have been exceeded and VRF system is disabled.
   **   ~~~   ** ... Outdoor Unit Inlet Air Temperature                 = -20.000
   **   ~~~   ** ... Cooling Minimum Outdoor Unit Inlet Temperature = -15.000
   **   ~~~   ** ... Cooling Maximum Outdoor Unit Inlet Temperature = 50.000
   **   ~~~   ** ... Check VRF Heat Pump Min/Max Outdoor Temperature in Cooling Mode limits.
   **   ~~~   **  During Warmup, Environment=CHICAGO OHARE INTL AP ANN HTG 99.6% CONDNS DB, at Simulation time=01/21 00:00 - 00:10
   ** Warning ** AirConditioner:VariableRefrigerantFlow "5 ZONE VRF SYSTEM 1".
   **   ~~~   ** ...InitVRF: VRF Heat Pump Min/Max Operating Temperature in Cooling Mode Limits have been exceeded and VRF system is disabled.
   **   ~~~   ** ... Outdoor Unit Inlet Air Temperature                 = -20.000
   **   ~~~   ** ... Cooling Minimum Outdoor Unit Inlet Temperature = -15.000
   **   ~~~   ** ... Cooling Maximum Outdoor Unit Inlet Temperature = 50.000
   **   ~~~   ** ... Check VRF Heat Pump Min/Max Outdoor Temperature in Cooling Mode limits.
   **   ~~~   **  During Warmup, Environment=CHICAGO OHARE INTL AP ANN HTG 99.6% CONDNS DB, at Simulation time=01/21 00:00 - 00:10
   ** Warning ** AirConditioner:VariableRefrigerantFlow "5 ZONE VRF SYSTEM 2".
   **   ~~~   ** ...InitVRF: VRF Heat Pump Min/Max Operating Temperature in Cooling Mode Limits have been exceeded and VRF system is disabled.
   **   ~~~   ** ... Outdoor Unit Inlet Air Temperature                 = -20.000
   **   ~~~   ** ... Cooling Minimum Outdoor Unit Inlet Temperature = -15.000
   **   ~~~   ** ... Cooling Maximum Outdoor Unit Inlet Temperature = 50.000
   **   ~~~   ** ... Check VRF Heat Pump Min/Max Outdoor Temperature in Cooling Mode limits.
   **   ~~~   **  During Warmup, Environment=CHICAGO OHARE INTL AP ANN HTG 99.6% CONDNS DB, at Simulation time=01/21 00:00 - 00:10
   ** Warning ** Output:Meter: invalid Key Name="DISTRICTCOOLING:FACILITY" - not found.
   ** Warning ** Output:Meter: invalid Key Name="DISTRICTHEATING:FACILITY" - not found.
   ** Warning ** Output:Meter:MeterFileOnly requested for "Electricity:Facility" (TimeStep), already on "Output:Meter". Will report to both eplusout.eso and eplusout.mtr
   ************* Testing Individual Branch Integrity
   ************* All Branches passed integrity testing
   ************* Testing Individual Supply Air Path Integrity
   ************* All Supply Air Paths passed integrity testing
   ************* Testing Individual Return Air Path Integrity
   ************* All Return Air Paths passed integrity testing
   ************* No node connection errors were found.
   ************* Beginning Simulation
   ** Warning ** Output:Table:Monthly requested with SimulationControl Run Simulation for Weather File Run Periods set to No so Output:Table:Monthly will not be generated
   ************* Simulation Error Summary *************
   ************* There are 8 unused objects in input.
   ************* Use Output:Diagnostics,DisplayUnusedObjects; to see them.
   ************* There are 6 unused schedules in input.
   ************* There are 6 unused week schedules in input.
   ************* There are 21 unused day schedules in input.
   ************* Use Output:Diagnostics,DisplayUnusedSchedules; to see them.
   *************
   ************* ===== Recurring Error Summary =====
   ************* The following recurring error messages occurred.
   *************
   *************  ** Warning ** AirConditioner:VariableRefrigerantFlow "5 ZONE VRF SYSTEM" -- Exceeded VRF Heat Pump min/max heating temperature limit error continues...
   *************  **   ~~~   **   This error occurred 364 total times;
   *************  **   ~~~   **   during Warmup 318 times;
   *************  **   ~~~   **   during Sizing 0 times.
   *************  **   ~~~   **   Max=26.0375  Min=22.835
   *************
   *************  ** Warning ** AirConditioner:VariableRefrigerantFlow "5 ZONE VRF SYSTEM 1" -- Exceeded VRF Heat Pump min/max heating temperature limit error continues...
   *************  **   ~~~   **   This error occurred 566 total times;
   *************  **   ~~~   **   during Warmup 500 times;
   *************  **   ~~~   **   during Sizing 0 times.
   *************  **   ~~~   **   Max=26.0375  Min=22.8
   *************
   *************  ** Warning ** AirConditioner:VariableRefrigerantFlow "5 ZONE VRF SYSTEM 2" -- Exceeded VRF Heat Pump min/max heating temperature limit error continues...
   *************  **   ~~~   **   This error occurred 578 total times;
   *************  **   ~~~   **   during Warmup 508 times;
   *************  **   ~~~   **   during Sizing 0 times.
   *************  **   ~~~   **   Max=26.0375  Min=22.8
   *************
   *************  ** Warning ** AirConditioner:VariableRefrigerantFlow "5 ZONE VRF SYSTEM" -- Exceeded VRF Heat Pump min/max cooling temperature limit error continues...
   *************  **   ~~~   **   This error occurred 338 total times;
   *************  **   ~~~   **   during Warmup 294 times;
   *************  **   ~~~   **   during Sizing 0 times.
   *************  **   ~~~   **   Max=-20.  Min=-20.
   *************
   *************  ** Warning ** AirConditioner:VariableRefrigerantFlow "5 ZONE VRF SYSTEM 1" -- Exceeded VRF Heat Pump min/max cooling temperature limit error continues...
   *************  **   ~~~   **   This error occurred 154 total times;
   *************  **   ~~~   **   during Warmup 140 times;
   *************  **   ~~~   **   during Sizing 0 times.
   *************  **   ~~~   **   Max=-20.  Min=-20.
   *************
   *************  ** Warning ** AirConditioner:VariableRefrigerantFlow "5 ZONE VRF SYSTEM 2" -- Exceeded VRF Heat Pump min/max cooling temperature limit error continues...
   *************  **   ~~~   **   This error occurred 67 total times;
   *************  **   ~~~   **   during Warmup 63 times;
   *************  **   ~~~   **   during Sizing 0 times.
   *************  **   ~~~   **   Max=-20.  Min=-20.
   *************
   *************  ** Warning ** Plant loop exceeding upper temperature limit, PlantLoop="MAIN SERVICE WATER LOOP"
   *************  **   ~~~   **   This error occurred 1133 total times;
   *************  **   ~~~   **   during Warmup 1002 times;
   *************  **   ~~~   **   during Sizing 0 times.
   *************  **   ~~~   **   Max=78.387435
   *************
   *************
   ************* ===== Final Error Summary =====
   ************* The following error categories occurred.  Consider correcting or noting.
   ************* Nominally Unused Constructions
   ************* ..The nominally unused constructions warning is provided to alert you to potential conditions that can cause
   ************* ..extra time during simulation. Each construction is calculated by the algorithm indicated in the HeatBalanceAlgorithm
   ************* ..object. You may remove the constructions indicated (when you use the DisplayExtraWarnings option).
   *************
   ************* EnergyPlus Warmup Error Summary. During Warmup: 0 Warning; 0 Severe Errors.
   ************* EnergyPlus Sizing Error Summary. During Sizing: 27 Warning; 0 Severe Errors.
   ************* EnergyPlus Completed Successfully-- 3234 Warning; 0 Severe Errors; Elapsed Time=00hr 00min  3.15sec
