Program Version,EnergyPlus, Version 9.1.0-08d2e308bb, YMD=2019.04.09 23:03
! <Version>, Version ID
 Version, 9.1
! <Timesteps per Hour>, #TimeSteps, Minutes per TimeStep {minutes}
 Timesteps per Hour,  6, 10
! <System Convergence Limits>, Minimum System TimeStep {minutes}, Max HVAC Iterations, Minimum Plant Iterations, Maximum Plant Iterations
 System Convergence Limits, 2, 25, 2, 8
! <Simulation Control>, Do Zone Sizing, Do System Sizing, Do Plant Sizing, Do Design Days, Do Weather Simulation, Do HVAC Sizing Simulation
 Simulation Control, Yes, Yes, Yes, No, Yes, No
! <Output Reporting Tolerances>, Tolerance for Time Heating Setpoint Not Met, Tolerance for Zone Cooling Setpoint Not Met Time
 Output Reporting Tolerances, 0.556, 0.556, 
! <Site:GroundTemperature:BuildingSurface>,Jan{C},Feb{C},Mar{C},Apr{C},May{C},Jun{C},Jul{C},Aug{C},Sep{C},Oct{C},Nov{C},Dec{C}
 Site:GroundTemperature:BuildingSurface,  20.49,  20.43,  20.44,  20.50,  20.59,  22.83,  23.24,  23.33,  23.36,  21.14,  20.78,  20.61
! <Site:GroundTemperature:FCfactorMethod>,Jan{C},Feb{C},Mar{C},Apr{C},May{C},Jun{C},Jul{C},Aug{C},Sep{C},Oct{C},Nov{C},Dec{C}
 Site:GroundTemperature:FCfactorMethod,  -1.89,  -3.06,  -0.99,   2.23,  10.68,  17.20,  21.60,  22.94,  20.66,  15.60,   8.83,   2.56
! <Site:GroundTemperature:Shallow>,Jan{C},Feb{C},Mar{C},Apr{C},May{C},Jun{C},Jul{C},Aug{C},Sep{C},Oct{C},Nov{C},Dec{C}
 Site:GroundTemperature:Shallow,  13.00,  13.00,  13.00,  13.00,  13.00,  13.00,  13.00,  13.00,  13.00,  13.00,  13.00,  13.00
! <Site:GroundTemperature:Deep>,Jan{C},Feb{C},Mar{C},Apr{C},May{C},Jun{C},Jul{C},Aug{C},Sep{C},Oct{C},Nov{C},Dec{C}
 Site:GroundTemperature:Deep,  16.00,  16.00,  16.00,  16.00,  16.00,  16.00,  16.00,  16.00,  16.00,  16.00,  16.00,  16.00
! <Site:GroundReflectance>,Jan{dimensionless},Feb{dimensionless},Mar{dimensionless},Apr{dimensionless},May{dimensionless},Jun{dimensionless},Jul{dimensionless},Aug{dimensionless},Sep{dimensionless},Oct{dimensionless},Nov{dimensionless},Dec{dimensionless}
 Site:GroundReflectance,  0.20,  0.20,  0.20,  0.20,  0.20,  0.20,  0.20,  0.20,  0.20,  0.20,  0.20,  0.20
! <Site:GroundReflectance:SnowModifier>, Normal, Daylighting {dimensionless}
 Site:GroundReflectance:SnowModifier,   1.000,   1.000
! <Site:GroundReflectance:Snow>,Jan{dimensionless},Feb{dimensionless},Mar{dimensionless},Apr{dimensionless},May{dimensionless},Jun{dimensionless},Jul{dimensionless},Aug{dimensionless},Sep{dimensionless},Oct{dimensionless},Nov{dimensionless},Dec{dimensionless}
 Site:GroundReflectance:Snow,  0.20,  0.20,  0.20,  0.20,  0.20,  0.20,  0.20,  0.20,  0.20,  0.20,  0.20,  0.20
! <Site:GroundReflectance:Snow:Daylighting>,Jan{dimensionless},Feb{dimensionless},Mar{dimensionless},Apr{dimensionless},May{dimensionless},Jun{dimensionless},Jul{dimensionless},Aug{dimensionless},Sep{dimensionless},Oct{dimensionless},Nov{dimensionless},Dec{dimensionless}
 Site:GroundReflectance:Snow:Daylighting,  0.20,  0.20,  0.20,  0.20,  0.20,  0.20,  0.20,  0.20,  0.20,  0.20,  0.20,  0.20
! <Environment:Weather Station>,Wind Sensor Height Above Ground {m},Wind Speed Profile Exponent {},Wind Speed Profile Boundary Layer Thickness {m},Air Temperature Sensor Height Above Ground {m},Wind Speed Modifier Coefficient-Internal,Temperature Modifier Coefficient-Internal
Environment:Weather Station,10.000,0.140,270.000,1.500,1.586,9.750E-003
! <Site:Location>, Location Name, Latitude {N+/S- Deg}, Longitude {E+/W- Deg},  Time Zone Number {GMT+/-}, Elevation {m},  Standard Pressure at Elevation {Pa}, Standard RhoAir at Elevation
Site:Location,Chicago Ohare Intl Ap IL USA TMY3 WMO#=725300,41.98,-87.92,-6.00,201.00,98934,1.1759
! <Site Water Mains Temperature Information>,Calculation Method{},Water Mains Temperature Schedule Name{},Annual Average Outdoor Air Temperature{C},Maximum Difference In Monthly Average Outdoor Air Temperatures{deltaC},Fixed Default Water Mains Temperature{C}
Site Water Mains Temperature Information,Correlation,NA,9.93,28.70,NA
! <Building Information>, Building Name,North Axis {deg},Terrain,  Loads Convergence Tolerance Value,Temperature Convergence Tolerance Value,  Solar Distribution,Maximum Number of Warmup Days,Minimum Number of Warmup Days
 Building Information,-MediumOffice-ASHRAE 169-2006-5A created: 2018-10-22 12:11:34 -0600,0.000,City,4.00000E-002,0.20000,FullInteriorAndExterior,25,6
! <Inside Convection Algorithm>, Algorithm {Simple | TARP | CeilingDiffuser | AdaptiveConvectionAlgorithm}
Inside Convection Algorithm,TARP
! <Outside Convection Algorithm>, Algorithm {SimpleCombined | TARP | MoWitt | DOE-2 | AdaptiveConvectionAlgorithm}
Outside Convection Algorithm,TARP
! <Sky Radiance Distribution>, Value {Anisotropic}
Sky Radiance Distribution,Anisotropic
! <Zone Air Solution Algorithm>, Value {ThirdOrderBackwardDifference | AnalyticalSolution | EulerMethod}
 Zone Air Solution Algorithm, ThirdOrderBackwardDifference
! <Zone Air Carbon Dioxide Balance Simulation>, Simulation {Yes/No}, Carbon Dioxide Concentration
 Zone Air Carbon Dioxide Balance Simulation, No,N/A
! <Zone Air Generic Contaminant Balance Simulation>, Simulation {Yes/No}, Generic Contaminant Concentration
 Zone Air Generic Contaminant Balance Simulation, No,N/A
! <Zone Air Mass Flow Balance Simulation>, Enforce Mass Balance, Adjust Zone Mixing, Adjust Zone Infiltration {AddInfiltration | AdjustInfiltration | None}, Infiltration Zones {MixingSourceZonesOnly | AllZones}
 Zone Air Mass Flow Balance Simulation, No,N/A,N/A,N/A
! <HVACSystemRootFindingAlgorithm>, Value {RegulaFalsi | Bisection | BisectionThenRegulaFalsi | RegulaFalsiThenBisection}
 HVACSystemRootFindingAlgorithm, RegulaFalsi
! <Environment:Site Atmospheric Variation>,Wind Speed Profile Exponent {},Wind Speed Profile Boundary Layer Thickness {m},Air Temperature Gradient Coefficient {K/m}
Environment:Site Atmospheric Variation,0.330,460.000,6.500000E-003
! <Surface Geometry>,Starting Corner,Vertex Input Direction,Coordinate System,Daylight Reference Point Coordinate System,Rectangular (Simple) Surface Coordinate System
 Surface Geometry,UpperLeftCorner,Counterclockwise,RelativeCoordinateSystem,RelativeCoordinateSystem,RelativeToZoneOrigin
! <Surface Heat Transfer Algorithm>, Value {CTF - ConductionTransferFunction | EMPD - MoisturePenetrationDepthConductionTransferFunction | CondFD - ConductionFiniteDifference | HAMT - CombinedHeatAndMoistureFiniteElement} - Description,Inside Surface Max Temperature Limit{C}, Surface Convection Coefficient Lower Limit {W/m2-K}, Surface Convection Coefficient Upper Limit {W/m2-K}
Surface Heat Transfer Algorithm, CTF - ConductionTransferFunction,200,0.10,1000.0
! <Shading Summary>, Number of Fixed Detached Shades, Number of Building Detached Shades, Number of Attached Shades
 Shading Summary,0,0,0
! <Zone Summary>, Number of Zones, Number of Zone Surfaces, Number of SubSurfaces
 Zone Summary,18,155,12
! <Zone Information>,Zone Name,North Axis {deg},Origin X-Coordinate {m},Origin Y-Coordinate {m},Origin Z-Coordinate {m},Centroid X-Coordinate {m},Centroid Y-Coordinate {m},Centroid Z-Coordinate {m},Type,Zone Multiplier,Zone List Multiplier,Minimum X {m},Maximum X {m},Minimum Y {m},Maximum Y {m},Minimum Z {m},Maximum Z {m},Ceiling Height {m},Volume {m3},Zone Inside Convection Algorithm {Simple-Detailed-CeilingDiffuser-TrombeWall},Zone Outside Convection Algorithm {Simple-Detailed-Tarp-MoWitt-DOE-2-BLAST}, Floor Area {m2},Exterior Gross Wall Area {m2},Exterior Net Wall Area {m2},Exterior Window Area {m2}, Number of Surfaces, Number of SubSurfaces, Number of Shading SubSurfaces,  Part of Total Building Area
 Zone Information, CORE_BOTTOM ZN,0.0,0.00,0.00,0.00,24.96,16.64,1.37,1,1,1,4.57,45.34,4.57,28.70,0.00,2.74,2.74,2698.04,TARP,TARP,983.54,0.00,0.00,0.00,6,0,0,Yes
 Zone Information, CORE_MID ZN,0.0,0.00,0.00,0.00,24.96,16.64,5.33,1,1,1,4.57,45.34,4.57,28.70,3.96,6.71,2.74,2698.04,TARP,TARP,983.54,0.00,0.00,0.00,6,0,0,Yes
 Zone Information, CORE_TOP ZN,0.0,0.00,0.00,0.00,24.96,16.64,9.30,1,1,1,4.57,45.34,4.57,28.70,7.92,10.67,2.74,2698.04,TARP,TARP,983.54,0.00,0.00,0.00,6,0,0,Yes
 Zone Information, FIRSTFLOOR_PLENUM ZN,0.0,0.00,0.00,0.00,24.96,16.64,3.35,1,1,1,0.00,49.91,0.00,33.27,2.74,3.96,1.22,2024.76,TARP,TARP,1660.73,202.84,202.84,0.00,14,0,0,No
 Zone Information, MIDFLOOR_PLENUM ZN,0.0,0.00,0.00,0.00,24.96,16.64,7.32,1,1,1,0.00,49.91,0.00,33.27,6.71,7.92,1.22,2024.76,TARP,TARP,1660.73,202.84,202.84,0.00,14,0,0,No
 Zone Information, PERIMETER_BOT_ZN_1 ZN,0.0,0.00,0.00,0.00,24.96,2.16,1.37,1,1,1,0.00,49.91,0.00,4.57,0.00,2.74,2.74,568.77,TARP,TARP,207.34,136.92,71.63,65.28,6,1,0,Yes
 Zone Information, PERIMETER_BOT_ZN_2 ZN,0.0,0.00,0.00,0.00,47.82,16.64,1.37,1,1,1,45.34,49.91,0.00,33.27,0.00,2.74,2.74,360.08,TARP,TARP,131.26,91.28,47.75,43.52,6,1,0,Yes
 Zone Information, PERIMETER_BOT_ZN_3 ZN,0.0,0.00,0.00,0.00,24.96,31.11,1.37,1,1,1,0.00,49.91,28.70,33.27,0.00,2.74,2.74,568.77,TARP,TARP,207.34,136.92,71.63,65.28,6,1,0,Yes
 Zone Information, PERIMETER_BOT_ZN_4 ZN,0.0,0.00,0.00,0.00,2.09,16.64,1.37,1,1,1,0.00,4.57,0.00,33.27,0.00,2.74,2.74,360.05,TARP,TARP,131.25,91.28,47.75,43.52,6,1,0,Yes
 Zone Information, PERIMETER_MID_ZN_1 ZN,0.0,0.00,0.00,0.00,24.96,2.16,5.33,1,1,1,0.00,49.91,0.00,4.57,3.96,6.71,2.74,568.77,TARP,TARP,207.34,136.92,71.63,65.28,6,1,0,Yes
 Zone Information, PERIMETER_MID_ZN_2 ZN,0.0,0.00,0.00,0.00,47.82,16.64,5.33,1,1,1,45.34,49.91,0.00,33.27,3.96,6.71,2.74,360.08,TARP,TARP,131.26,91.28,47.75,43.52,6,1,0,Yes
 Zone Information, PERIMETER_MID_ZN_3 ZN,0.0,0.00,0.00,0.00,24.96,31.11,5.33,1,1,1,0.00,49.91,28.70,33.27,3.96,6.71,2.74,568.77,TARP,TARP,207.34,136.92,71.63,65.28,6,1,0,Yes
 Zone Information, PERIMETER_MID_ZN_4 ZN,0.0,0.00,0.00,0.00,2.09,16.64,5.33,1,1,1,0.00,4.57,0.00,33.27,3.96,6.71,2.74,360.05,TARP,TARP,131.25,91.28,47.75,43.52,6,1,0,Yes
 Zone Information, PERIMETER_TOP_ZN_1 ZN,0.0,0.00,0.00,0.00,24.96,2.16,9.30,1,1,1,0.00,49.91,0.00,4.57,7.92,10.67,2.74,568.77,TARP,TARP,207.34,136.92,71.63,65.28,6,1,0,Yes
 Zone Information, PERIMETER_TOP_ZN_2 ZN,0.0,0.00,0.00,0.00,47.82,16.64,9.30,1,1,1,45.34,49.91,0.00,33.27,7.92,10.67,2.74,360.08,TARP,TARP,131.26,91.28,47.75,43.52,6,1,0,Yes
 Zone Information, PERIMETER_TOP_ZN_3 ZN,0.0,0.00,0.00,0.00,24.96,31.11,9.30,1,1,1,0.00,49.91,28.70,33.27,7.92,10.67,2.74,568.77,TARP,TARP,207.34,136.92,71.63,65.28,6,1,0,Yes
 Zone Information, PERIMETER_TOP_ZN_4 ZN,0.0,0.00,0.00,0.00,2.09,16.64,9.30,1,1,1,0.00,4.57,0.00,33.27,7.92,10.67,2.74,360.05,TARP,TARP,131.25,91.28,47.75,43.52,6,1,0,Yes
 Zone Information, TOPFLOOR_PLENUM ZN,0.0,0.00,0.00,0.00,24.96,16.64,11.28,1,1,1,0.00,49.91,0.00,33.27,10.67,11.89,1.22,2024.76,TARP,TARP,1660.73,202.84,202.84,0.00,10,0,0,No
! <Zone Internal Gains Nominal>,Zone Name, Floor Area {m2},# Occupants,Area per Occupant {m2/person},Occupant per Area {person/m2},Interior Lighting {W/m2},Electric Load {W/m2},Gas Load {W/m2},Other Load {W/m2},Hot Water Eq {W/m2},Steam Equipment {W/m2},Sum Loads per Area {W/m2},Outdoor Controlled Baseboard Heat
 Zone Internal Gains Nominal, CORE_BOTTOM ZN,983.54,52.9,18.581,5.382E-002,8.826,40.849,0.000,0.000,0.000,0.000,49.676,No
 Zone Internal Gains Nominal, CORE_MID ZN,983.54,52.9,18.581,5.382E-002,8.826,8.073,0.000,0.000,0.000,0.000,16.899,No
 Zone Internal Gains Nominal, CORE_TOP ZN,983.54,52.9,18.581,5.382E-002,8.826,8.073,0.000,0.000,0.000,0.000,16.899,No
 Zone Internal Gains Nominal, FIRSTFLOOR_PLENUM ZN,1660.73,0.0,N/A,0.000,0.000,0.000,0.000,0.000,0.000,0.000,0.000,No
 Zone Internal Gains Nominal, MIDFLOOR_PLENUM ZN,1660.73,0.0,N/A,0.000,0.000,0.000,0.000,0.000,0.000,0.000,0.000,No
 Zone Internal Gains Nominal, PERIMETER_BOT_ZN_1 ZN,207.34,11.2,18.581,5.382E-002,8.826,8.073,0.000,0.000,0.000,0.000,16.899,No
 Zone Internal Gains Nominal, PERIMETER_BOT_ZN_2 ZN,131.26,7.1,18.581,5.382E-002,8.826,8.073,0.000,0.000,0.000,0.000,16.899,No
 Zone Internal Gains Nominal, PERIMETER_BOT_ZN_3 ZN,207.34,11.2,18.581,5.382E-002,8.826,8.073,0.000,0.000,0.000,0.000,16.899,No
 Zone Internal Gains Nominal, PERIMETER_BOT_ZN_4 ZN,131.25,7.1,18.581,5.382E-002,8.826,8.073,0.000,0.000,0.000,0.000,16.899,No
 Zone Internal Gains Nominal, PERIMETER_MID_ZN_1 ZN,207.34,11.2,18.581,5.382E-002,8.826,8.073,0.000,0.000,0.000,0.000,16.899,No
 Zone Internal Gains Nominal, PERIMETER_MID_ZN_2 ZN,131.26,7.1,18.581,5.382E-002,8.826,8.073,0.000,0.000,0.000,0.000,16.899,No
 Zone Internal Gains Nominal, PERIMETER_MID_ZN_3 ZN,207.34,11.2,18.581,5.382E-002,8.826,8.073,0.000,0.000,0.000,0.000,16.899,No
 Zone Internal Gains Nominal, PERIMETER_MID_ZN_4 ZN,131.25,7.1,18.581,5.382E-002,8.826,8.073,0.000,0.000,0.000,0.000,16.899,No
 Zone Internal Gains Nominal, PERIMETER_TOP_ZN_1 ZN,207.34,11.2,18.581,5.382E-002,8.826,8.073,0.000,0.000,0.000,0.000,16.899,No
 Zone Internal Gains Nominal, PERIMETER_TOP_ZN_2 ZN,131.26,7.1,18.581,5.382E-002,8.826,8.073,0.000,0.000,0.000,0.000,16.899,No
 Zone Internal Gains Nominal, PERIMETER_TOP_ZN_3 ZN,207.34,11.2,18.581,5.382E-002,8.826,8.073,0.000,0.000,0.000,0.000,16.899,No
 Zone Internal Gains Nominal, PERIMETER_TOP_ZN_4 ZN,131.25,7.1,18.581,5.382E-002,8.826,8.073,0.000,0.000,0.000,0.000,16.899,No
 Zone Internal Gains Nominal, TOPFLOOR_PLENUM ZN,1660.73,0.0,N/A,0.000,0.000,0.000,0.000,0.000,0.000,0.000,0.000,No
! <People Internal Gains Nominal>,Name,Schedule Name,Zone Name,Zone Floor Area {m2},# Zone Occupants,Number of People {},People/Floor Area {person/m2},Floor Area per person {m2/person},Fraction Radiant,Fraction Convected,Sensible Fraction Calculation,Activity level,ASHRAE 55 Warnings,Carbon Dioxide Generation Rate,Nominal Minimum Number of People,Nominal Maximum Number of People
 People Internal Gains Nominal, CORE_BOTTOM ZN OFFICE WHOLEBUILDING - MD OFFICE PEOPLE,OFFICEMEDIUM BLDG_OCC_SCH,CORE_BOTTOM ZN,983.54,52.9,52.9,5.382E-002,18.581,0.300,0.700,AutoCalculate,OFFICEMEDIUM ACTIVITY_SCH,No,3.8200E-008,0,53
 People Internal Gains Nominal, CORE_MID ZN OFFICE WHOLEBUILDING - MD OFFICE PEOPLE,OFFICEMEDIUM BLDG_OCC_SCH,CORE_MID ZN,983.54,52.9,52.9,5.382E-002,18.581,0.300,0.700,AutoCalculate,OFFICEMEDIUM ACTIVITY_SCH,No,3.8200E-008,0,53
 People Internal Gains Nominal, CORE_TOP ZN OFFICE WHOLEBUILDING - MD OFFICE PEOPLE,OFFICEMEDIUM BLDG_OCC_SCH,CORE_TOP ZN,983.54,52.9,52.9,5.382E-002,18.581,0.300,0.700,AutoCalculate,OFFICEMEDIUM ACTIVITY_SCH,No,3.8200E-008,0,53
 People Internal Gains Nominal, PERIMETER_BOT_ZN_1 ZN OFFICE WHOLEBUILDING - MD OFFICE PEOPLE,OFFICEMEDIUM BLDG_OCC_SCH,PERIMETER_BOT_ZN_1 ZN,207.34,11.2,11.2,5.382E-002,18.581,0.300,0.700,AutoCalculate,OFFICEMEDIUM ACTIVITY_SCH,No,3.8200E-008,0,11
 People Internal Gains Nominal, PERIMETER_BOT_ZN_2 ZN OFFICE WHOLEBUILDING - MD OFFICE PEOPLE,OFFICEMEDIUM BLDG_OCC_SCH,PERIMETER_BOT_ZN_2 ZN,131.26,7.1,7.1,5.382E-002,18.581,0.300,0.700,AutoCalculate,OFFICEMEDIUM ACTIVITY_SCH,No,3.8200E-008,0,7
 People Internal Gains Nominal, PERIMETER_BOT_ZN_3 ZN OFFICE WHOLEBUILDING - MD OFFICE PEOPLE,OFFICEMEDIUM BLDG_OCC_SCH,PERIMETER_BOT_ZN_3 ZN,207.34,11.2,11.2,5.382E-002,18.581,0.300,0.700,AutoCalculate,OFFICEMEDIUM ACTIVITY_SCH,No,3.8200E-008,0,11
 People Internal Gains Nominal, PERIMETER_BOT_ZN_4 ZN OFFICE WHOLEBUILDING - MD OFFICE PEOPLE,OFFICEMEDIUM BLDG_OCC_SCH,PERIMETER_BOT_ZN_4 ZN,131.25,7.1,7.1,5.382E-002,18.581,0.300,0.700,AutoCalculate,OFFICEMEDIUM ACTIVITY_SCH,No,3.8200E-008,0,7
 People Internal Gains Nominal, PERIMETER_MID_ZN_1 ZN OFFICE WHOLEBUILDING - MD OFFICE PEOPLE,OFFICEMEDIUM BLDG_OCC_SCH,PERIMETER_MID_ZN_1 ZN,207.34,11.2,11.2,5.382E-002,18.581,0.300,0.700,AutoCalculate,OFFICEMEDIUM ACTIVITY_SCH,No,3.8200E-008,0,11
 People Internal Gains Nominal, PERIMETER_MID_ZN_2 ZN OFFICE WHOLEBUILDING - MD OFFICE PEOPLE,OFFICEMEDIUM BLDG_OCC_SCH,PERIMETER_MID_ZN_2 ZN,131.26,7.1,7.1,5.382E-002,18.581,0.300,0.700,AutoCalculate,OFFICEMEDIUM ACTIVITY_SCH,No,3.8200E-008,0,7
 People Internal Gains Nominal, PERIMETER_MID_ZN_3 ZN OFFICE WHOLEBUILDING - MD OFFICE PEOPLE,OFFICEMEDIUM BLDG_OCC_SCH,PERIMETER_MID_ZN_3 ZN,207.34,11.2,11.2,5.382E-002,18.581,0.300,0.700,AutoCalculate,OFFICEMEDIUM ACTIVITY_SCH,No,3.8200E-008,0,11
 People Internal Gains Nominal, PERIMETER_MID_ZN_4 ZN OFFICE WHOLEBUILDING - MD OFFICE PEOPLE,OFFICEMEDIUM BLDG_OCC_SCH,PERIMETER_MID_ZN_4 ZN,131.25,7.1,7.1,5.382E-002,18.581,0.300,0.700,AutoCalculate,OFFICEMEDIUM ACTIVITY_SCH,No,3.8200E-008,0,7
 People Internal Gains Nominal, PERIMETER_TOP_ZN_1 ZN OFFICE WHOLEBUILDING - MD OFFICE PEOPLE,OFFICEMEDIUM BLDG_OCC_SCH,PERIMETER_TOP_ZN_1 ZN,207.34,11.2,11.2,5.382E-002,18.581,0.300,0.700,AutoCalculate,OFFICEMEDIUM ACTIVITY_SCH,No,3.8200E-008,0,11
 People Internal Gains Nominal, PERIMETER_TOP_ZN_2 ZN OFFICE WHOLEBUILDING - MD OFFICE PEOPLE,OFFICEMEDIUM BLDG_OCC_SCH,PERIMETER_TOP_ZN_2 ZN,131.26,7.1,7.1,5.382E-002,18.581,0.300,0.700,AutoCalculate,OFFICEMEDIUM ACTIVITY_SCH,No,3.8200E-008,0,7
 People Internal Gains Nominal, PERIMETER_TOP_ZN_3 ZN OFFICE WHOLEBUILDING - MD OFFICE PEOPLE,OFFICEMEDIUM BLDG_OCC_SCH,PERIMETER_TOP_ZN_3 ZN,207.34,11.2,11.2,5.382E-002,18.581,0.300,0.700,AutoCalculate,OFFICEMEDIUM ACTIVITY_SCH,No,3.8200E-008,0,11
 People Internal Gains Nominal, PERIMETER_TOP_ZN_4 ZN OFFICE WHOLEBUILDING - MD OFFICE PEOPLE,OFFICEMEDIUM BLDG_OCC_SCH,PERIMETER_TOP_ZN_4 ZN,131.25,7.1,7.1,5.382E-002,18.581,0.300,0.700,AutoCalculate,OFFICEMEDIUM ACTIVITY_SCH,No,3.8200E-008,0,7
! <Lights Internal Gains Nominal>,Name,Schedule Name,Zone Name,Zone Floor Area {m2},# Zone Occupants,Lighting Level {W},Lights/Floor Area {W/m2},Lights per person {W/person},Fraction Return Air,Fraction Radiant,Fraction Short Wave,Fraction Convected,Fraction Replaceable,End-Use Category,Nominal Minimum Lighting Level {W},Nominal Maximum Lighting Level {W}
 Lights Internal Gains Nominal, CORE_BOTTOM ZN OFFICE WHOLEBUILDING - MD OFFICE LIGHTS,OFFICEMEDIUM BLDG_LIGHT_SCH_2013,CORE_BOTTOM ZN,983.54,52.9,8681.094,8.826,164.000,0.000,0.700,0.200,0.100,1.000,General,0.000,8681.094
 Lights Internal Gains Nominal, CORE_MID ZN OFFICE WHOLEBUILDING - MD OFFICE LIGHTS,OFFICEMEDIUM BLDG_LIGHT_SCH_2013,CORE_MID ZN,983.54,52.9,8681.094,8.826,164.000,0.000,0.700,0.200,0.100,1.000,General,0.000,8681.094
 Lights Internal Gains Nominal, CORE_TOP ZN OFFICE WHOLEBUILDING - MD OFFICE LIGHTS,OFFICEMEDIUM BLDG_LIGHT_SCH_2013,CORE_TOP ZN,983.54,52.9,8681.094,8.826,164.000,0.000,0.700,0.200,0.100,1.000,General,0.000,8681.094
 Lights Internal Gains Nominal, PERIMETER_BOT_ZN_1 ZN OFFICE WHOLEBUILDING - MD OFFICE LIGHTS,OFFICEMEDIUM BLDG_LIGHT_SCH_2013,PERIMETER_BOT_ZN_1 ZN,207.34,11.2,1830.051,8.826,164.000,0.000,0.700,0.200,0.100,1.000,General,0.000,1830.051
 Lights Internal Gains Nominal, PERIMETER_BOT_ZN_2 ZN OFFICE WHOLEBUILDING - MD OFFICE LIGHTS,OFFICEMEDIUM BLDG_LIGHT_SCH_2013,PERIMETER_BOT_ZN_2 ZN,131.26,7.1,1158.573,8.826,164.000,0.000,0.700,0.200,0.100,1.000,General,0.000,1158.573
 Lights Internal Gains Nominal, PERIMETER_BOT_ZN_3 ZN OFFICE WHOLEBUILDING - MD OFFICE LIGHTS,OFFICEMEDIUM BLDG_LIGHT_SCH_2013,PERIMETER_BOT_ZN_3 ZN,207.34,11.2,1830.051,8.826,164.000,0.000,0.700,0.200,0.100,1.000,General,0.000,1830.051
 Lights Internal Gains Nominal, PERIMETER_BOT_ZN_4 ZN OFFICE WHOLEBUILDING - MD OFFICE LIGHTS,OFFICEMEDIUM BLDG_LIGHT_SCH_2013,PERIMETER_BOT_ZN_4 ZN,131.25,7.1,1158.497,8.826,164.000,0.000,0.700,0.200,0.100,1.000,General,0.000,1158.497
 Lights Internal Gains Nominal, PERIMETER_MID_ZN_1 ZN OFFICE WHOLEBUILDING - MD OFFICE LIGHTS,OFFICEMEDIUM BLDG_LIGHT_SCH_2013,PERIMETER_MID_ZN_1 ZN,207.34,11.2,1830.051,8.826,164.000,0.000,0.700,0.200,0.100,1.000,General,0.000,1830.051
 Lights Internal Gains Nominal, PERIMETER_MID_ZN_2 ZN OFFICE WHOLEBUILDING - MD OFFICE LIGHTS,OFFICEMEDIUM BLDG_LIGHT_SCH_2013,PERIMETER_MID_ZN_2 ZN,131.26,7.1,1158.573,8.826,164.000,0.000,0.700,0.200,0.100,1.000,General,0.000,1158.573
 Lights Internal Gains Nominal, PERIMETER_MID_ZN_3 ZN OFFICE WHOLEBUILDING - MD OFFICE LIGHTS,OFFICEMEDIUM BLDG_LIGHT_SCH_2013,PERIMETER_MID_ZN_3 ZN,207.34,11.2,1830.051,8.826,164.000,0.000,0.700,0.200,0.100,1.000,General,0.000,1830.051
 Lights Internal Gains Nominal, PERIMETER_MID_ZN_4 ZN OFFICE WHOLEBUILDING - MD OFFICE LIGHTS,OFFICEMEDIUM BLDG_LIGHT_SCH_2013,PERIMETER_MID_ZN_4 ZN,131.25,7.1,1158.497,8.826,164.000,0.000,0.700,0.200,0.100,1.000,General,0.000,1158.497
 Lights Internal Gains Nominal, PERIMETER_TOP_ZN_1 ZN OFFICE WHOLEBUILDING - MD OFFICE LIGHTS,OFFICEMEDIUM BLDG_LIGHT_SCH_2013,PERIMETER_TOP_ZN_1 ZN,207.34,11.2,1830.051,8.826,164.000,0.000,0.700,0.200,0.100,1.000,General,0.000,1830.051
 Lights Internal Gains Nominal, PERIMETER_TOP_ZN_2 ZN OFFICE WHOLEBUILDING - MD OFFICE LIGHTS,OFFICEMEDIUM BLDG_LIGHT_SCH_2013,PERIMETER_TOP_ZN_2 ZN,131.26,7.1,1158.573,8.826,164.000,0.000,0.700,0.200,0.100,1.000,General,0.000,1158.573
 Lights Internal Gains Nominal, PERIMETER_TOP_ZN_3 ZN OFFICE WHOLEBUILDING - MD OFFICE LIGHTS,OFFICEMEDIUM BLDG_LIGHT_SCH_2013,PERIMETER_TOP_ZN_3 ZN,207.34,11.2,1830.051,8.826,164.000,0.000,0.700,0.200,0.100,1.000,General,0.000,1830.051
 Lights Internal Gains Nominal, PERIMETER_TOP_ZN_4 ZN OFFICE WHOLEBUILDING - MD OFFICE LIGHTS,OFFICEMEDIUM BLDG_LIGHT_SCH_2013,PERIMETER_TOP_ZN_4 ZN,131.25,7.1,1158.497,8.826,164.000,0.000,0.700,0.200,0.100,1.000,General,0.000,1158.497
! <ElectricEquipment Internal Gains Nominal>,Name,Schedule Name,Zone Name,Zone Floor Area {m2},# Zone Occupants,Equipment Level {W},Equipment/Floor Area {W/m2},Equipment per person {W/person},Fraction Latent,Fraction Radiant,Fraction Lost,Fraction Convected,End-Use SubCategory,Nominal Minimum Equipment Level {W},Nominal Maximum Equipment Level {W}
 ElectricEquipment Internal Gains Nominal, 2 ELEVATOR FANS,OFFICEMEDIUM ELEV_LIGHT_FAN_SCH_ADD_DF,CORE_BOTTOM ZN,983.54,52.9,61.915,6.295E-002,1.170,0.000,0.500,0.000,0.500,General,0.000,42.721
 ElectricEquipment Internal Gains Nominal, 2 ELEVATOR LIFT MOTORS,OFFICEMEDIUM BLDG_ELEVATORS,CORE_BOTTOM ZN,983.54,52.9,32110.000,32.647,606.610,0.000,0.500,0.000,0.500,General,0.000,22155.900
 ElectricEquipment Internal Gains Nominal, 2 ELEVATOR LIGHTS,OFFICEMEDIUM ELEV_LIGHT_FAN_SCH_ADD_DF,CORE_BOTTOM ZN,983.54,52.9,64.697,6.578E-002,1.222,0.000,0.500,0.000,0.500,General,0.000,44.641
 ElectricEquipment Internal Gains Nominal, CORE_BOTTOM ZN OFFICE WHOLEBUILDING - MD OFFICE ELEC EQUIP,OFFICEMEDIUM BLDG_EQUIP_SCH_2013,CORE_BOTTOM ZN,983.54,52.9,7940.025,8.073,150.000,0.000,0.500,0.000,0.500,General,0.000,7940.025
 ElectricEquipment Internal Gains Nominal, CORE_MID ZN OFFICE WHOLEBUILDING - MD OFFICE ELEC EQUIP,OFFICEMEDIUM BLDG_EQUIP_SCH_2013,CORE_MID ZN,983.54,52.9,7940.025,8.073,150.000,0.000,0.500,0.000,0.500,General,0.000,7940.025
 ElectricEquipment Internal Gains Nominal, CORE_TOP ZN OFFICE WHOLEBUILDING - MD OFFICE ELEC EQUIP,OFFICEMEDIUM BLDG_EQUIP_SCH_2013,CORE_TOP ZN,983.54,52.9,7940.025,8.073,150.000,0.000,0.500,0.000,0.500,General,0.000,7940.025
 ElectricEquipment Internal Gains Nominal, PERIMETER_BOT_ZN_1 ZN OFFICE WHOLEBUILDING - MD OFFICE ELEC EQUIP,OFFICEMEDIUM BLDG_EQUIP_SCH_2013,PERIMETER_BOT_ZN_1 ZN,207.34,11.2,1673.827,8.073,150.000,0.000,0.500,0.000,0.500,General,0.000,1673.827
 ElectricEquipment Internal Gains Nominal, PERIMETER_BOT_ZN_2 ZN OFFICE WHOLEBUILDING - MD OFFICE ELEC EQUIP,OFFICEMEDIUM BLDG_EQUIP_SCH_2013,PERIMETER_BOT_ZN_2 ZN,131.26,7.1,1059.671,8.073,150.000,0.000,0.500,0.000,0.500,General,0.000,1059.671
 ElectricEquipment Internal Gains Nominal, PERIMETER_BOT_ZN_3 ZN OFFICE WHOLEBUILDING - MD OFFICE ELEC EQUIP,OFFICEMEDIUM BLDG_EQUIP_SCH_2013,PERIMETER_BOT_ZN_3 ZN,207.34,11.2,1673.827,8.073,150.000,0.000,0.500,0.000,0.500,General,0.000,1673.827
 ElectricEquipment Internal Gains Nominal, PERIMETER_BOT_ZN_4 ZN OFFICE WHOLEBUILDING - MD OFFICE ELEC EQUIP,OFFICEMEDIUM BLDG_EQUIP_SCH_2013,PERIMETER_BOT_ZN_4 ZN,131.25,7.1,1059.601,8.073,150.000,0.000,0.500,0.000,0.500,General,0.000,1059.601
 ElectricEquipment Internal Gains Nominal, PERIMETER_MID_ZN_1 ZN OFFICE WHOLEBUILDING - MD OFFICE ELEC EQUIP,OFFICEMEDIUM BLDG_EQUIP_SCH_2013,PERIMETER_MID_ZN_1 ZN,207.34,11.2,1673.827,8.073,150.000,0.000,0.500,0.000,0.500,General,0.000,1673.827
 ElectricEquipment Internal Gains Nominal, PERIMETER_MID_ZN_2 ZN OFFICE WHOLEBUILDING - MD OFFICE ELEC EQUIP,OFFICEMEDIUM BLDG_EQUIP_SCH_2013,PERIMETER_MID_ZN_2 ZN,131.26,7.1,1059.671,8.073,150.000,0.000,0.500,0.000,0.500,General,0.000,1059.671
 ElectricEquipment Internal Gains Nominal, PERIMETER_MID_ZN_3 ZN OFFICE WHOLEBUILDING - MD OFFICE ELEC EQUIP,OFFICEMEDIUM BLDG_EQUIP_SCH_2013,PERIMETER_MID_ZN_3 ZN,207.34,11.2,1673.827,8.073,150.000,0.000,0.500,0.000,0.500,General,0.000,1673.827
 ElectricEquipment Internal Gains Nominal, PERIMETER_MID_ZN_4 ZN OFFICE WHOLEBUILDING - MD OFFICE ELEC EQUIP,OFFICEMEDIUM BLDG_EQUIP_SCH_2013,PERIMETER_MID_ZN_4 ZN,131.25,7.1,1059.601,8.073,150.000,0.000,0.500,0.000,0.500,General,0.000,1059.601
 ElectricEquipment Internal Gains Nominal, PERIMETER_TOP_ZN_1 ZN OFFICE WHOLEBUILDING - MD OFFICE ELEC EQUIP,OFFICEMEDIUM BLDG_EQUIP_SCH_2013,PERIMETER_TOP_ZN_1 ZN,207.34,11.2,1673.827,8.073,150.000,0.000,0.500,0.000,0.500,General,0.000,1673.827
 ElectricEquipment Internal Gains Nominal, PERIMETER_TOP_ZN_2 ZN OFFICE WHOLEBUILDING - MD OFFICE ELEC EQUIP,OFFICEMEDIUM BLDG_EQUIP_SCH_2013,PERIMETER_TOP_ZN_2 ZN,131.26,7.1,1059.671,8.073,150.000,0.000,0.500,0.000,0.500,General,0.000,1059.671
 ElectricEquipment Internal Gains Nominal, PERIMETER_TOP_ZN_3 ZN OFFICE WHOLEBUILDING - MD OFFICE ELEC EQUIP,OFFICEMEDIUM BLDG_EQUIP_SCH_2013,PERIMETER_TOP_ZN_3 ZN,207.34,11.2,1673.827,8.073,150.000,0.000,0.500,0.000,0.500,General,0.000,1673.827
 ElectricEquipment Internal Gains Nominal, PERIMETER_TOP_ZN_4 ZN OFFICE WHOLEBUILDING - MD OFFICE ELEC EQUIP,OFFICEMEDIUM BLDG_EQUIP_SCH_2013,PERIMETER_TOP_ZN_4 ZN,131.25,7.1,1059.601,8.073,150.000,0.000,0.500,0.000,0.500,General,0.000,1059.601
! <Shadowing/Sun Position Calculations Annual Simulations>, Calculation Method, Value {days}, Allowable Number Figures in Shadow Overlap {}, Polygon Clipping Algorithm, Sky Diffuse Modeling Algorithm, External Shading Calculation Method, Output External Shading Calculation Results, Disable Self-Shading Within Shading Zone Groups, Disable Self-Shading From Shading Zone Groups to Other Zones
Shadowing/Sun Position Calculations Annual Simulations,AverageOverDaysInFrequency,7,15000,SutherlandHodgman,SimpleSkyDiffuseModeling,InternalCalculation,No,No,No
! <Zone/Window Adjacency Daylighting Counts>, Zone Name, Number of Exterior Windows, Number of Exterior Windows in Adjacent Zones
Zone/Window Adjacency Daylighting Counts, PERIMETER_BOT_ZN_1 ZN,1,0
Zone/Window Adjacency Daylighting Counts, PERIMETER_BOT_ZN_2 ZN,1,0
Zone/Window Adjacency Daylighting Counts, PERIMETER_BOT_ZN_3 ZN,1,0
Zone/Window Adjacency Daylighting Counts, PERIMETER_BOT_ZN_4 ZN,1,0
Zone/Window Adjacency Daylighting Counts, PERIMETER_MID_ZN_1 ZN,1,0
Zone/Window Adjacency Daylighting Counts, PERIMETER_MID_ZN_2 ZN,1,0
Zone/Window Adjacency Daylighting Counts, PERIMETER_MID_ZN_3 ZN,1,0
Zone/Window Adjacency Daylighting Counts, PERIMETER_MID_ZN_4 ZN,1,0
Zone/Window Adjacency Daylighting Counts, PERIMETER_TOP_ZN_1 ZN,1,0
Zone/Window Adjacency Daylighting Counts, PERIMETER_TOP_ZN_2 ZN,1,0
Zone/Window Adjacency Daylighting Counts, PERIMETER_TOP_ZN_3 ZN,1,0
Zone/Window Adjacency Daylighting Counts, PERIMETER_TOP_ZN_4 ZN,1,0
! <Zone/Window Adjacency Daylighting Matrix>, Zone Name, Number of Adjacent Zones with Windows,Adjacent Zone Names - 1st 100 (max)
Zone/Window Adjacency Daylighting Matrix, PERIMETER_BOT_ZN_1 ZN,0
Zone/Window Adjacency Daylighting Matrix, PERIMETER_BOT_ZN_2 ZN,0
Zone/Window Adjacency Daylighting Matrix, PERIMETER_BOT_ZN_3 ZN,0
Zone/Window Adjacency Daylighting Matrix, PERIMETER_BOT_ZN_4 ZN,0
Zone/Window Adjacency Daylighting Matrix, PERIMETER_MID_ZN_1 ZN,0
Zone/Window Adjacency Daylighting Matrix, PERIMETER_MID_ZN_2 ZN,0
Zone/Window Adjacency Daylighting Matrix, PERIMETER_MID_ZN_3 ZN,0
Zone/Window Adjacency Daylighting Matrix, PERIMETER_MID_ZN_4 ZN,0
Zone/Window Adjacency Daylighting Matrix, PERIMETER_TOP_ZN_1 ZN,0
Zone/Window Adjacency Daylighting Matrix, PERIMETER_TOP_ZN_2 ZN,0
Zone/Window Adjacency Daylighting Matrix, PERIMETER_TOP_ZN_3 ZN,0
Zone/Window Adjacency Daylighting Matrix, PERIMETER_TOP_ZN_4 ZN,0
! <Water Heater Information>,Type,Name,Volume {m3},Maximum Capacity {W},Standard Rated Recovery Efficiency, Standard Rated Energy Factor
! <ZoneInfiltration Airflow Stats Nominal>,Name,Schedule Name,Zone Name, Zone Floor Area {m2}, # Zone Occupants,Design Volume Flow Rate {m3/s},Volume Flow Rate/Floor Area {m3/s-m2},Volume Flow Rate/Exterior Surface Area {m3/s-m2},ACH - Air Changes per Hour,Equation A - Constant Term Coefficient {},Equation B - Temperature Term Coefficient {1/C},Equation C - Velocity Term Coefficient {s/m}, Equation D - Velocity Squared Term Coefficient {s2/m2}
 ZoneInfiltration Airflow Stats Nominal, FIRSTFLOOR_PLENUM INFILTRATION,OFFICEMEDIUM INFIL_SCH_PNNL,FIRSTFLOOR_PLENUM ZN,1660.73,0.0,0.116,6.957E-005,5.696E-004,0.205,0.000,0.000,0.224,0.000
 ZoneInfiltration Airflow Stats Nominal, MIDFLOOR_PLENUM INFILTRATION,OFFICEMEDIUM INFIL_SCH_PNNL,MIDFLOOR_PLENUM ZN,1660.73,0.0,0.116,6.957E-005,5.696E-004,0.205,0.000,0.000,0.224,0.000
 ZoneInfiltration Airflow Stats Nominal, ENTRY DOOR INFILTRATION,OFFICEMEDIUM INFIL_DOOR_OPENING_SCH,PERIMETER_BOT_ZN_1 ZN,207.34,11.2,0.679,3.273E-003,4.957E-003,4.296,1.000,0.000,0.000,0.000
 ZoneInfiltration Airflow Stats Nominal, PERIMETER_BOT_ZN_1 INFILTRATION,OFFICEMEDIUM INFIL_SCH_PNNL,PERIMETER_BOT_ZN_1 ZN,207.34,11.2,7.798E-002,3.761E-004,5.696E-004,0.494,0.000,0.000,0.224,0.000
 ZoneInfiltration Airflow Stats Nominal, PERIMETER_BOT_ZN_2 INFILTRATION,OFFICEMEDIUM INFIL_SCH_PNNL,PERIMETER_BOT_ZN_2 ZN,131.26,7.1,5.199E-002,3.961E-004,5.696E-004,0.520,0.000,0.000,0.224,0.000
 ZoneInfiltration Airflow Stats Nominal, PERIMETER_BOT_ZN_3 INFILTRATION,OFFICEMEDIUM INFIL_SCH_PNNL,PERIMETER_BOT_ZN_3 ZN,207.34,11.2,7.798E-002,3.761E-004,5.696E-004,0.494,0.000,0.000,0.224,0.000
 ZoneInfiltration Airflow Stats Nominal, PERIMETER_BOT_ZN_4 INFILTRATION,OFFICEMEDIUM INFIL_SCH_PNNL,PERIMETER_BOT_ZN_4 ZN,131.25,7.1,5.199E-002,3.961E-004,5.696E-004,0.520,0.000,0.000,0.224,0.000
 ZoneInfiltration Airflow Stats Nominal, PERIMETER_MID_ZN_1 INFILTRATION,OFFICEMEDIUM INFIL_SCH_PNNL,PERIMETER_MID_ZN_1 ZN,207.34,11.2,7.798E-002,3.761E-004,5.696E-004,0.494,0.000,0.000,0.224,0.000
 ZoneInfiltration Airflow Stats Nominal, PERIMETER_MID_ZN_2 INFILTRATION,OFFICEMEDIUM INFIL_SCH_PNNL,PERIMETER_MID_ZN_2 ZN,131.26,7.1,5.199E-002,3.961E-004,5.696E-004,0.520,0.000,0.000,0.224,0.000
 ZoneInfiltration Airflow Stats Nominal, PERIMETER_MID_ZN_3 INFILTRATION,OFFICEMEDIUM INFIL_SCH_PNNL,PERIMETER_MID_ZN_3 ZN,207.34,11.2,7.798E-002,3.761E-004,5.696E-004,0.494,0.000,0.000,0.224,0.000
 ZoneInfiltration Airflow Stats Nominal, PERIMETER_MID_ZN_4 INFILTRATION,OFFICEMEDIUM INFIL_SCH_PNNL,PERIMETER_MID_ZN_4 ZN,131.25,7.1,5.199E-002,3.961E-004,5.696E-004,0.520,0.000,0.000,0.224,0.000
 ZoneInfiltration Airflow Stats Nominal, PERIMETER_TOP_ZN_1 INFILTRATION,OFFICEMEDIUM INFIL_SCH_PNNL,PERIMETER_TOP_ZN_1 ZN,207.34,11.2,7.798E-002,3.761E-004,5.696E-004,0.494,0.000,0.000,0.224,0.000
 ZoneInfiltration Airflow Stats Nominal, PERIMETER_TOP_ZN_2 INFILTRATION,OFFICEMEDIUM INFIL_SCH_PNNL,PERIMETER_TOP_ZN_2 ZN,131.26,7.1,5.199E-002,3.961E-004,5.696E-004,0.520,0.000,0.000,0.224,0.000
 ZoneInfiltration Airflow Stats Nominal, PERIMETER_TOP_ZN_3 INFILTRATION,OFFICEMEDIUM INFIL_SCH_PNNL,PERIMETER_TOP_ZN_3 ZN,207.34,11.2,7.798E-002,3.761E-004,5.696E-004,0.494,0.000,0.000,0.224,0.000
 ZoneInfiltration Airflow Stats Nominal, PERIMETER_TOP_ZN_4 INFILTRATION,OFFICEMEDIUM INFIL_SCH_PNNL,PERIMETER_TOP_ZN_4 ZN,131.25,7.1,5.199E-002,3.961E-004,5.696E-004,0.520,0.000,0.000,0.224,0.000
 ZoneInfiltration Airflow Stats Nominal, TOPFLOOR_PLENUM INFILTRATION,OFFICEMEDIUM INFIL_SCH_PNNL,TOPFLOOR_PLENUM ZN,1660.73,0.0,0.116,6.957E-005,6.199E-005,0.205,0.000,0.000,0.224,0.000
! <AirFlow Model>, Simple
 AirFlow Model, Simple
! <RoomAir Model>, Zone Name, Mixing/Mundt/UCSDDV/UCSDCV/UCSDUFI/UCSDUFE/User Defined
RoomAir Model,CORE_BOTTOM ZN,Mixing/Well-Stirred
RoomAir Model,CORE_MID ZN,Mixing/Well-Stirred
RoomAir Model,CORE_TOP ZN,Mixing/Well-Stirred
RoomAir Model,FIRSTFLOOR_PLENUM ZN,Mixing/Well-Stirred
RoomAir Model,MIDFLOOR_PLENUM ZN,Mixing/Well-Stirred
RoomAir Model,PERIMETER_BOT_ZN_1 ZN,Mixing/Well-Stirred
RoomAir Model,PERIMETER_BOT_ZN_2 ZN,Mixing/Well-Stirred
RoomAir Model,PERIMETER_BOT_ZN_3 ZN,Mixing/Well-Stirred
RoomAir Model,PERIMETER_BOT_ZN_4 ZN,Mixing/Well-Stirred
RoomAir Model,PERIMETER_MID_ZN_1 ZN,Mixing/Well-Stirred
RoomAir Model,PERIMETER_MID_ZN_2 ZN,Mixing/Well-Stirred
RoomAir Model,PERIMETER_MID_ZN_3 ZN,Mixing/Well-Stirred
RoomAir Model,PERIMETER_MID_ZN_4 ZN,Mixing/Well-Stirred
RoomAir Model,PERIMETER_TOP_ZN_1 ZN,Mixing/Well-Stirred
RoomAir Model,PERIMETER_TOP_ZN_2 ZN,Mixing/Well-Stirred
RoomAir Model,PERIMETER_TOP_ZN_3 ZN,Mixing/Well-Stirred
RoomAir Model,PERIMETER_TOP_ZN_4 ZN,Mixing/Well-Stirred
RoomAir Model,TOPFLOOR_PLENUM ZN,Mixing/Well-Stirred
! <AirflowNetwork Model:Control>, No Multizone or Distribution/Multizone with Distribution/Multizone without Distribution/Multizone with Distribution only during Fan Operation
AirflowNetwork Model:Control,NoMultizoneOrDistribution
! <Zone Volume Capacitance Multiplier>, Sensible Heat Capacity Multiplier, Moisture Capacity Multiplier, Carbon Dioxide Capacity Multiplier, Generic Contaminant Capacity Multiplier
Zone Volume Capacitance Multiplier,   1.000 ,   1.000,   1.000,   1.000
! <Zone Sizing DOAS Inputs>, Zone Name, DOAS Design Control Strategy, DOAS Design Low Setpoint Temperature {C}, DOAS Design High Setpoint Temperature {C} 
 Zone Sizing DOAS Inputs, CORE_BOTTOM ZN, NeutralSupplyAir, 15.556, 21.111
 Zone Sizing DOAS Inputs, CORE_MID ZN, NeutralSupplyAir, 15.556, 21.111
 Zone Sizing DOAS Inputs, CORE_TOP ZN, NeutralSupplyAir, 15.556, 21.111
 Zone Sizing DOAS Inputs, PERIMETER_BOT_ZN_1 ZN, NeutralSupplyAir, 15.556, 21.111
 Zone Sizing DOAS Inputs, PERIMETER_BOT_ZN_2 ZN, NeutralSupplyAir, 15.556, 21.111
 Zone Sizing DOAS Inputs, PERIMETER_BOT_ZN_3 ZN, NeutralSupplyAir, 15.556, 21.111
 Zone Sizing DOAS Inputs, PERIMETER_BOT_ZN_4 ZN, NeutralSupplyAir, 15.556, 21.111
 Zone Sizing DOAS Inputs, PERIMETER_MID_ZN_1 ZN, NeutralSupplyAir, 15.556, 21.111
 Zone Sizing DOAS Inputs, PERIMETER_MID_ZN_2 ZN, NeutralSupplyAir, 15.556, 21.111
 Zone Sizing DOAS Inputs, PERIMETER_MID_ZN_3 ZN, NeutralSupplyAir, 15.556, 21.111
 Zone Sizing DOAS Inputs, PERIMETER_MID_ZN_4 ZN, NeutralSupplyAir, 15.556, 21.111
 Zone Sizing DOAS Inputs, PERIMETER_TOP_ZN_1 ZN, NeutralSupplyAir, 15.556, 21.111
 Zone Sizing DOAS Inputs, PERIMETER_TOP_ZN_2 ZN, NeutralSupplyAir, 15.556, 21.111
 Zone Sizing DOAS Inputs, PERIMETER_TOP_ZN_3 ZN, NeutralSupplyAir, 15.556, 21.111
 Zone Sizing DOAS Inputs, PERIMETER_TOP_ZN_4 ZN, NeutralSupplyAir, 15.556, 21.111
! <Load Timesteps in Zone Design Calculation Averaging Window>, Value
 Load Timesteps in Zone Design Calculation Averaging Window,    6
! <Heating Sizing Factor Information>, Sizing Factor ID, Value
 Heating Sizing Factor Information, Global,   1.0000    
! <Cooling Sizing Factor Information>, Sizing Factor ID, Value
 Cooling Sizing Factor Information, Global,   1.0000    
! <Sky Daylight Factors>, MonthAndDay, Zone Name, Window Name, Daylight Fac: Ref Pt #1, Daylight Fac: Ref Pt #2
 Clear Sky Daylight Factors,07/21,PERIMETER_BOT_ZN_1 ZN,PERIMETER_BOT_ZN_1_WALL_SOUTH_WINDOW,6.0924E-002,3.2546E-002
 Clear Turbid Sky Daylight Factors,07/21,PERIMETER_BOT_ZN_1 ZN,PERIMETER_BOT_ZN_1_WALL_SOUTH_WINDOW,5.8834E-002,3.0462E-002
 Intermediate Sky Daylight Factors,07/21,PERIMETER_BOT_ZN_1 ZN,PERIMETER_BOT_ZN_1_WALL_SOUTH_WINDOW,4.8008E-002,2.3221E-002
 Overcast Sky Daylight Factors,07/21,PERIMETER_BOT_ZN_1 ZN,PERIMETER_BOT_ZN_1_WALL_SOUTH_WINDOW,4.2665E-002,2.0593E-002
 Clear Sky Daylight Factors,07/21,PERIMETER_BOT_ZN_2 ZN,PERIMETER_BOT_ZN_2_WALL_EAST_WINDOW,4.3350E-002,2.5229E-002
 Clear Turbid Sky Daylight Factors,07/21,PERIMETER_BOT_ZN_2 ZN,PERIMETER_BOT_ZN_2_WALL_EAST_WINDOW,3.8576E-002,2.2165E-002
 Intermediate Sky Daylight Factors,07/21,PERIMETER_BOT_ZN_2 ZN,PERIMETER_BOT_ZN_2_WALL_EAST_WINDOW,3.1815E-002,1.6728E-002
 Overcast Sky Daylight Factors,07/21,PERIMETER_BOT_ZN_2 ZN,PERIMETER_BOT_ZN_2_WALL_EAST_WINDOW,4.3064E-002,2.0859E-002
 Clear Sky Daylight Factors,07/21,PERIMETER_BOT_ZN_3 ZN,PERIMETER_BOT_ZN_3_WALL_NORTH_WINDOW,3.4630E-002,2.1590E-002
 Clear Turbid Sky Daylight Factors,07/21,PERIMETER_BOT_ZN_3 ZN,PERIMETER_BOT_ZN_3_WALL_NORTH_WINDOW,2.8999E-002,1.8118E-002
 Intermediate Sky Daylight Factors,07/21,PERIMETER_BOT_ZN_3 ZN,PERIMETER_BOT_ZN_3_WALL_NORTH_WINDOW,2.1720E-002,1.2336E-002
 Overcast Sky Daylight Factors,07/21,PERIMETER_BOT_ZN_3 ZN,PERIMETER_BOT_ZN_3_WALL_NORTH_WINDOW,4.2665E-002,2.0593E-002
 Clear Sky Daylight Factors,07/21,PERIMETER_BOT_ZN_4 ZN,PERIMETER_BOT_ZN_4_WALL_WEST_WINDOW,4.3936E-002,2.5476E-002
 Clear Turbid Sky Daylight Factors,07/21,PERIMETER_BOT_ZN_4 ZN,PERIMETER_BOT_ZN_4_WALL_WEST_WINDOW,3.9235E-002,2.2441E-002
 Intermediate Sky Daylight Factors,07/21,PERIMETER_BOT_ZN_4 ZN,PERIMETER_BOT_ZN_4_WALL_WEST_WINDOW,3.2414E-002,1.6979E-002
 Overcast Sky Daylight Factors,07/21,PERIMETER_BOT_ZN_4 ZN,PERIMETER_BOT_ZN_4_WALL_WEST_WINDOW,4.3065E-002,2.0859E-002
 Clear Sky Daylight Factors,07/21,PERIMETER_MID_ZN_1 ZN,PERIMETER_MID_ZN_1_WALL_SOUTH_WINDOW,6.2640E-002,3.4261E-002
 Clear Turbid Sky Daylight Factors,07/21,PERIMETER_MID_ZN_1 ZN,PERIMETER_MID_ZN_1_WALL_SOUTH_WINDOW,6.0509E-002,3.2137E-002
 Intermediate Sky Daylight Factors,07/21,PERIMETER_MID_ZN_1 ZN,PERIMETER_MID_ZN_1_WALL_SOUTH_WINDOW,4.9450E-002,2.4663E-002
 Overcast Sky Daylight Factors,07/21,PERIMETER_MID_ZN_1 ZN,PERIMETER_MID_ZN_1_WALL_SOUTH_WINDOW,4.3932E-002,2.1860E-002
 Clear Sky Daylight Factors,07/21,PERIMETER_MID_ZN_2 ZN,PERIMETER_MID_ZN_2_WALL_EAST_WINDOW,4.4800E-002,2.6679E-002
 Clear Turbid Sky Daylight Factors,07/21,PERIMETER_MID_ZN_2 ZN,PERIMETER_MID_ZN_2_WALL_EAST_WINDOW,3.9926E-002,2.3515E-002
 Intermediate Sky Daylight Factors,07/21,PERIMETER_MID_ZN_2 ZN,PERIMETER_MID_ZN_2_WALL_EAST_WINDOW,3.3002E-002,1.7916E-002
 Overcast Sky Daylight Factors,07/21,PERIMETER_MID_ZN_2 ZN,PERIMETER_MID_ZN_2_WALL_EAST_WINDOW,4.4411E-002,2.2206E-002
 Clear Sky Daylight Factors,07/21,PERIMETER_MID_ZN_3 ZN,PERIMETER_MID_ZN_3_WALL_NORTH_WINDOW,3.5837E-002,2.2797E-002
 Clear Turbid Sky Daylight Factors,07/21,PERIMETER_MID_ZN_3 ZN,PERIMETER_MID_ZN_3_WALL_NORTH_WINDOW,3.0086E-002,1.9205E-002
 Intermediate Sky Daylight Factors,07/21,PERIMETER_MID_ZN_3 ZN,PERIMETER_MID_ZN_3_WALL_NORTH_WINDOW,2.2639E-002,1.3255E-002
 Overcast Sky Daylight Factors,07/21,PERIMETER_MID_ZN_3 ZN,PERIMETER_MID_ZN_3_WALL_NORTH_WINDOW,4.3932E-002,2.1860E-002
 Clear Sky Daylight Factors,07/21,PERIMETER_MID_ZN_4 ZN,PERIMETER_MID_ZN_4_WALL_WEST_WINDOW,4.5397E-002,2.6937E-002
 Clear Turbid Sky Daylight Factors,07/21,PERIMETER_MID_ZN_4 ZN,PERIMETER_MID_ZN_4_WALL_WEST_WINDOW,4.0599E-002,2.3804E-002
 Intermediate Sky Daylight Factors,07/21,PERIMETER_MID_ZN_4 ZN,PERIMETER_MID_ZN_4_WALL_WEST_WINDOW,3.3614E-002,1.8179E-002
 Overcast Sky Daylight Factors,07/21,PERIMETER_MID_ZN_4 ZN,PERIMETER_MID_ZN_4_WALL_WEST_WINDOW,4.4412E-002,2.2206E-002
 Clear Sky Daylight Factors,07/21,PERIMETER_TOP_ZN_1 ZN,PERIMETER_TOP_ZN_1_WALL_SOUTH_WINDOW,6.2640E-002,3.4261E-002
 Clear Turbid Sky Daylight Factors,07/21,PERIMETER_TOP_ZN_1 ZN,PERIMETER_TOP_ZN_1_WALL_SOUTH_WINDOW,6.0509E-002,3.2137E-002
 Intermediate Sky Daylight Factors,07/21,PERIMETER_TOP_ZN_1 ZN,PERIMETER_TOP_ZN_1_WALL_SOUTH_WINDOW,4.9450E-002,2.4663E-002
 Overcast Sky Daylight Factors,07/21,PERIMETER_TOP_ZN_1 ZN,PERIMETER_TOP_ZN_1_WALL_SOUTH_WINDOW,4.3932E-002,2.1860E-002
 Clear Sky Daylight Factors,07/21,PERIMETER_TOP_ZN_2 ZN,PERIMETER_TOP_ZN_2_WALL_EAST_WINDOW,4.4800E-002,2.6679E-002
 Clear Turbid Sky Daylight Factors,07/21,PERIMETER_TOP_ZN_2 ZN,PERIMETER_TOP_ZN_2_WALL_EAST_WINDOW,3.9926E-002,2.3515E-002
 Intermediate Sky Daylight Factors,07/21,PERIMETER_TOP_ZN_2 ZN,PERIMETER_TOP_ZN_2_WALL_EAST_WINDOW,3.3002E-002,1.7916E-002
 Overcast Sky Daylight Factors,07/21,PERIMETER_TOP_ZN_2 ZN,PERIMETER_TOP_ZN_2_WALL_EAST_WINDOW,4.4411E-002,2.2206E-002
 Clear Sky Daylight Factors,07/21,PERIMETER_TOP_ZN_3 ZN,PERIMETER_TOP_ZN_3_WALL_NORTH_WINDOW,3.5837E-002,2.2797E-002
 Clear Turbid Sky Daylight Factors,07/21,PERIMETER_TOP_ZN_3 ZN,PERIMETER_TOP_ZN_3_WALL_NORTH_WINDOW,3.0086E-002,1.9205E-002
 Intermediate Sky Daylight Factors,07/21,PERIMETER_TOP_ZN_3 ZN,PERIMETER_TOP_ZN_3_WALL_NORTH_WINDOW,2.2639E-002,1.3255E-002
 Overcast Sky Daylight Factors,07/21,PERIMETER_TOP_ZN_3 ZN,PERIMETER_TOP_ZN_3_WALL_NORTH_WINDOW,4.3932E-002,2.1860E-002
 Clear Sky Daylight Factors,07/21,PERIMETER_TOP_ZN_4 ZN,PERIMETER_TOP_ZN_4_WALL_WEST_WINDOW,4.5397E-002,2.6937E-002
 Clear Turbid Sky Daylight Factors,07/21,PERIMETER_TOP_ZN_4 ZN,PERIMETER_TOP_ZN_4_WALL_WEST_WINDOW,4.0599E-002,2.3804E-002
 Intermediate Sky Daylight Factors,07/21,PERIMETER_TOP_ZN_4 ZN,PERIMETER_TOP_ZN_4_WALL_WEST_WINDOW,3.3614E-002,1.8179E-002
 Overcast Sky Daylight Factors,07/21,PERIMETER_TOP_ZN_4 ZN,PERIMETER_TOP_ZN_4_WALL_WEST_WINDOW,4.4412E-002,2.2206E-002
! <Zone Sizing Information>, Zone Name, Load Type, Calc Des Load {W}, User Des Load {W}, Calc Des Air Flow Rate {m3/s}, User Des Air Flow Rate {m3/s}, Design Day Name, Date/Time of Peak, Temperature at Peak {C}, Humidity Ratio at Peak {kgWater/kgDryAir}, Floor Area {m2}, # Occupants, Calc Outdoor Air Flow Rate {m3/s}, Calc DOAS Heat Addition Rate {W}
 Zone Sizing Information, CORE_BOTTOM ZN, Cooling, 40872.02947, 40872.02947, 3.01014, 3.01014, CHICAGO OHARE INTL AP ANN CLG .4% CONDNS DB=>MWB, 7/21 08:00:00, 25.53000, 1.49611E-002, 983.53657, 52.93350, 0.42469, -1292.90975
 Zone Sizing Information, CORE_BOTTOM ZN, Heating, 11053.68054, 11053.68054, 0.47683, 0.47683, CHICAGO OHARE INTL AP ANN HTG 99.6% CONDNS DB, 1/21 08:00:00, -20.00000, 6.49857E-004, 983.53657, 52.93350, 0.42469, -2307.70705
 Zone Sizing Information, CORE_MID ZN, Cooling, 29747.81051, 29747.81051, 2.18866, 2.18866, CHICAGO OHARE INTL AP ANN CLG .4% CONDNS DB=>MWB, 7/21 08:00:00, 25.53000, 1.49611E-002, 983.53657, 52.93350, 0.42469, -1292.20365
 Zone Sizing Information, CORE_MID ZN, Heating, 17989.32399, 17989.32399, 0.78066, 0.78066, CHICAGO OHARE INTL AP ANN HTG 99.6% CONDNS DB, 1/21 08:00:00, -20.00000, 6.49857E-004, 983.53657, 52.93350, 0.42469, -2305.65854
 Zone Sizing Information, CORE_TOP ZN, Cooling, 30026.75797, 30026.75797, 2.20937, 2.20937, CHICAGO OHARE INTL AP ANN CLG .4% CONDNS DB=>MWB, 7/21 08:00:00, 25.53000, 1.49611E-002, 983.53657, 52.93350, 0.42469, -1292.18738
 Zone Sizing Information, CORE_TOP ZN, Heating, 29665.08907, 29665.08907, 1.29188, 1.29188, CHICAGO OHARE INTL AP ANN HTG 99.6% CONDNS DB, 1/21 08:00:00, -20.00000, 6.49857E-004, 983.53657, 52.93350, 0.42469, -2302.59348
 Zone Sizing Information, PERIMETER_BOT_ZN_1 ZN, Cooling, 10557.95951, 10557.95951, 0.78412, 0.78412, CHICAGO OHARE INTL AP ANN CLG .4% CONDNS DB=>MWB, 7/21 13:00:00, 32.77500, 1.49611E-002, 207.33814, 11.15885, 8.95286E-002, -266.58455
 Zone Sizing Information, PERIMETER_BOT_ZN_1 ZN, Heating, 9154.15137, 9154.15137, 0.39928, 0.39928, CHICAGO OHARE INTL AP ANN HTG 99.6% CONDNS DB, 1/21 08:00:00, -20.00000, 6.49857E-004, 207.33814, 11.15885, 8.95286E-002, -485.27246
 Zone Sizing Information, PERIMETER_BOT_ZN_2 ZN, Cooling, 10509.35393, 10509.35393, 0.77499, 0.77499, CHICAGO OHARE INTL AP ANN CLG .4% CONDNS DB=>MWB, 7/21 08:00:00, 25.53000, 1.49611E-002, 131.26219, 7.06447, 5.66790E-002, -172.76611
 Zone Sizing Information, PERIMETER_BOT_ZN_2 ZN, Heating, 5947.12012, 5947.12012, 0.25942, 0.25942, CHICAGO OHARE INTL AP ANN HTG 99.6% CONDNS DB, 1/21 08:00:00, -20.00000, 6.49857E-004, 131.26219, 7.06447, 5.66790E-002, -307.21861
 Zone Sizing Information, PERIMETER_BOT_ZN_3 ZN, Cooling, 6470.72787, 6470.72787, 0.48057, 0.48057, CHICAGO OHARE INTL AP ANN CLG .4% CONDNS DB=>MWB, 7/21 14:30:00, 33.30000, 1.49611E-002, 207.33814, 11.15885, 8.95286E-002, -266.58226
 Zone Sizing Information, PERIMETER_BOT_ZN_3 ZN, Heating, 8991.70671, 8991.70671, 0.39217, 0.39217, CHICAGO OHARE INTL AP ANN HTG 99.6% CONDNS DB, 1/21 08:00:00, -20.00000, 6.49857E-004, 207.33814, 11.15885, 8.95286E-002, -485.27332
 Zone Sizing Information, PERIMETER_BOT_ZN_4 ZN, Cooling, 10586.46617, 10586.46617, 0.78623, 0.78623, CHICAGO OHARE INTL AP ANN CLG .4% CONDNS DB=>MWB, 7/21 16:50:00, 31.97000, 1.49611E-002, 131.25358, 7.06401, 5.66753E-002, -168.76518
 Zone Sizing Information, PERIMETER_BOT_ZN_4 ZN, Heating, 6036.92530, 6036.92530, 0.26335, 0.26335, CHICAGO OHARE INTL AP ANN HTG 99.6% CONDNS DB, 1/21 08:00:00, -20.00000, 6.49857E-004, 131.25358, 7.06401, 5.66753E-002, -307.19780
 Zone Sizing Information, PERIMETER_MID_ZN_1 ZN, Cooling, 12099.02729, 12099.02729, 0.89857, 0.89857, CHICAGO OHARE INTL AP ANN CLG .4% CONDNS DB=>MWB, 7/21 13:00:00, 32.77500, 1.49611E-002, 207.33814, 11.15885, 8.95286E-002, -266.58049
 Zone Sizing Information, PERIMETER_MID_ZN_1 ZN, Heating, 10822.50045, 10822.50045, 0.47229, 0.47229, CHICAGO OHARE INTL AP ANN HTG 99.6% CONDNS DB, 1/21 08:00:00, -20.00000, 6.49857E-004, 207.33814, 11.15885, 8.95286E-002, -485.25392
 Zone Sizing Information, PERIMETER_MID_ZN_2 ZN, Cooling, 11643.03102, 11643.03102, 0.85862, 0.85862, CHICAGO OHARE INTL AP ANN CLG .4% CONDNS DB=>MWB, 7/21 08:00:00, 25.53000, 1.49611E-002, 131.26219, 7.06447, 5.66790E-002, -172.82582
 Zone Sizing Information, PERIMETER_MID_ZN_2 ZN, Heating, 7005.80421, 7005.80421, 0.30575, 0.30575, CHICAGO OHARE INTL AP ANN HTG 99.6% CONDNS DB, 1/21 08:00:00, -20.00000, 6.49857E-004, 131.26219, 7.06447, 5.66790E-002, -307.20599
 Zone Sizing Information, PERIMETER_MID_ZN_3 ZN, Cooling, 7939.63825, 7939.63825, 0.58966, 0.58966, CHICAGO OHARE INTL AP ANN CLG .4% CONDNS DB=>MWB, 7/21 14:20:00, 33.30000, 1.49611E-002, 207.33814, 11.15885, 8.95286E-002, -266.57760
 Zone Sizing Information, PERIMETER_MID_ZN_3 ZN, Heating, 10679.74082, 10679.74082, 0.46604, 0.46604, CHICAGO OHARE INTL AP ANN HTG 99.6% CONDNS DB, 1/21 08:00:00, -20.00000, 6.49857E-004, 207.33814, 11.15885, 8.95286E-002, -485.25499
 Zone Sizing Information, PERIMETER_MID_ZN_4 ZN, Cooling, 11614.70165, 11614.70165, 0.86259, 0.86259, CHICAGO OHARE INTL AP ANN CLG .4% CONDNS DB=>MWB, 7/21 16:50:00, 31.97000, 1.49611E-002, 131.25358, 7.06401, 5.66753E-002, -168.76188
 Zone Sizing Information, PERIMETER_MID_ZN_4 ZN, Heating, 7110.36461, 7110.36461, 0.31033, 0.31033, CHICAGO OHARE INTL AP ANN HTG 99.6% CONDNS DB, 1/21 08:00:00, -20.00000, 6.49857E-004, 131.25358, 7.06401, 5.66753E-002, -307.18474
 Zone Sizing Information, PERIMETER_TOP_ZN_1 ZN, Cooling, 13006.27907, 13006.27907, 0.96595, 0.96595, CHICAGO OHARE INTL AP ANN CLG .4% CONDNS DB=>MWB, 7/21 13:10:00, 32.86250, 1.49611E-002, 207.33814, 11.15885, 8.95286E-002, -266.57827
 Zone Sizing Information, PERIMETER_TOP_ZN_1 ZN, Heating, 13211.46864, 13211.46864, 0.57683, 0.57683, CHICAGO OHARE INTL AP ANN HTG 99.6% CONDNS DB, 1/21 08:00:00, -20.00000, 6.49857E-004, 207.33814, 11.15885, 8.95286E-002, -485.23134
 Zone Sizing Information, PERIMETER_TOP_ZN_2 ZN, Cooling, 11658.58601, 11658.58601, 0.85979, 0.85979, CHICAGO OHARE INTL AP ANN CLG .4% CONDNS DB=>MWB, 7/21 08:00:00, 25.53000, 1.49611E-002, 131.26219, 7.06447, 5.66790E-002, -172.82111
 Zone Sizing Information, PERIMETER_TOP_ZN_2 ZN, Heating, 8515.40967, 8515.40967, 0.37181, 0.37181, CHICAGO OHARE INTL AP ANN HTG 99.6% CONDNS DB, 1/21 08:00:00, -20.00000, 6.49857E-004, 131.26219, 7.06447, 5.66790E-002, -307.19109
 Zone Sizing Information, PERIMETER_TOP_ZN_3 ZN, Cooling, 8958.55989, 8958.55989, 0.66534, 0.66534, CHICAGO OHARE INTL AP ANN CLG .4% CONDNS DB=>MWB, 7/21 14:40:00, 33.30000, 1.49611E-002, 207.33814, 11.15885, 8.95286E-002, -266.57459
 Zone Sizing Information, PERIMETER_TOP_ZN_3 ZN, Heating, 13096.32936, 13096.32936, 0.57179, 0.57179, CHICAGO OHARE INTL AP ANN HTG 99.6% CONDNS DB, 1/21 08:00:00, -20.00000, 6.49857E-004, 207.33814, 11.15885, 8.95286E-002, -485.23242
 Zone Sizing Information, PERIMETER_TOP_ZN_4 ZN, Cooling, 12230.84507, 12230.84507, 0.90836, 0.90836, CHICAGO OHARE INTL AP ANN CLG .4% CONDNS DB=>MWB, 7/21 16:40:00, 32.11000, 1.49611E-002, 131.25358, 7.06401, 5.66753E-002, -168.75947
 Zone Sizing Information, PERIMETER_TOP_ZN_4 ZN, Heating, 8624.01263, 8624.01263, 0.37656, 0.37656, CHICAGO OHARE INTL AP ANN HTG 99.6% CONDNS DB, 1/21 08:00:00, -20.00000, 6.49857E-004, 131.25358, 7.06401, 5.66753E-002, -307.16957
! <System Sizing Information>, System Name, Load Type, Peak Load Kind, User Design Capacity, Calc Des Air Flow Rate [m3/s], User Des Air Flow Rate [m3/s], Design Day Name, Date/Time of Peak
 System Sizing Information, 5 ZONE DOAS, Cooling, Sensible, 15035.35, 4.92409, 0.71710, CHICAGO OHARE INTL AP ANN CLG .4% CONDNS DB=>MWB, 7/21 00:00:00
 System Sizing Information, 5 ZONE DOAS, Heating, Sensible, 34834.55, 1.79106, 0.71710, CHICAGO OHARE INTL AP ANN HTG 99.6% CONDNS DB, 1/21 08:00:00
 System Sizing Information, 5 ZONE DOAS 1, Cooling, Sensible, 15035.35, 4.49254, 0.71710, CHICAGO OHARE INTL AP ANN CLG .4% CONDNS DB=>MWB, 7/21 00:00:00
 System Sizing Information, 5 ZONE DOAS 1, Heating, Sensible, 34834.55, 2.33508, 0.71710, CHICAGO OHARE INTL AP ANN HTG 99.6% CONDNS DB, 1/21 08:00:00
 System Sizing Information, 5 ZONE DOAS 2, Cooling, Sensible, 15035.35, 4.99651, 0.71710, CHICAGO OHARE INTL AP ANN CLG .4% CONDNS DB=>MWB, 7/21 00:00:00
 System Sizing Information, 5 ZONE DOAS 2, Heating, Sensible, 34834.55, 3.18886, 0.71710, CHICAGO OHARE INTL AP ANN HTG 99.6% CONDNS DB, 1/21 08:00:00
! <Component Sizing Information>, Component Type, Component Name, Input Field Description, Value
 Component Sizing Information, AirTerminal:SingleDuct:ConstantVolume:NoReheat, CORE_BOTTOM ZN AIR TERMINAL, Design Size Maximum Air Flow Rate [m3/s], 0.42469
 Component Sizing Information, ZoneHVAC:TerminalUnit:VariableRefrigerantFlow, CORE_BOTTOM ZN VRF TERMINAL UNIT, Design Size Cooling Supply Air Flow Rate [m3/s], 3.01014
 Component Sizing Information, ZoneHVAC:TerminalUnit:VariableRefrigerantFlow, CORE_BOTTOM ZN VRF TERMINAL UNIT, Design Size Heating Supply Air Flow Rate [m3/s], 3.01014
 Component Sizing Information, ZoneHVAC:TerminalUnit:VariableRefrigerantFlow, CORE_BOTTOM ZN VRF TERMINAL UNIT, Design Size No Cooling Supply Air Flow Rate [m3/s], 3.01014
 Component Sizing Information, ZoneHVAC:TerminalUnit:VariableRefrigerantFlow, CORE_BOTTOM ZN VRF TERMINAL UNIT, Design Size No Heating Supply Air Flow Rate [m3/s], 3.01014
 Component Sizing Information, Coil:Cooling:DX:VariableRefrigerantFlow, ZONE HVAC TERMINAL UNIT VARIABLE REFRIGERANT FLOW 1 COOLING COIL 4, Design Size Rated Air Flow Rate [m3/s], 3.01014
 Component Sizing Information, Coil:Cooling:DX:VariableRefrigerantFlow, ZONE HVAC TERMINAL UNIT VARIABLE REFRIGERANT FLOW 1 COOLING COIL 4, Design Size Gross Rated Total Cooling Capacity [W], 51836.68300
 Component Sizing Information, Coil:Cooling:DX:VariableRefrigerantFlow, ZONE HVAC TERMINAL UNIT VARIABLE REFRIGERANT FLOW 1 COOLING COIL 4, Design Size Gross Rated Sensible Heat Ratio, 0.80041
 Component Sizing Information, Coil:Heating:DX:VariableRefrigerantFlow, ZONE HVAC TERMINAL UNIT VARIABLE REFRIGERANT FLOW 1 HEATING COIL 4, Design Size Rated Air Flow Rate [m3/s], 3.01014
 Component Sizing Information, Coil:Heating:DX:VariableRefrigerantFlow, ZONE HVAC TERMINAL UNIT VARIABLE REFRIGERANT FLOW 1 HEATING COIL 4, Design Size Gross Rated Heating Capacity [W], 51836.68300
 Component Sizing Information, Fan:OnOff, CORE_BOTTOM ZN VRF UNIT CYCLING FAN, Design Size Maximum Flow Rate [m3/s], 3.01014
 Component Sizing Information, AirTerminal:SingleDuct:ConstantVolume:NoReheat, CORE_MID ZN AIR TERMINAL, Design Size Maximum Air Flow Rate [m3/s], 0.42469
 Component Sizing Information, ZoneHVAC:TerminalUnit:VariableRefrigerantFlow, CORE_MID ZN VRF TERMINAL UNIT, Design Size Cooling Supply Air Flow Rate [m3/s], 2.18866
 Component Sizing Information, ZoneHVAC:TerminalUnit:VariableRefrigerantFlow, CORE_MID ZN VRF TERMINAL UNIT, Design Size Heating Supply Air Flow Rate [m3/s], 2.18866
 Component Sizing Information, ZoneHVAC:TerminalUnit:VariableRefrigerantFlow, CORE_MID ZN VRF TERMINAL UNIT, Design Size No Cooling Supply Air Flow Rate [m3/s], 2.18866
 Component Sizing Information, ZoneHVAC:TerminalUnit:VariableRefrigerantFlow, CORE_MID ZN VRF TERMINAL UNIT, Design Size No Heating Supply Air Flow Rate [m3/s], 2.18866
 Component Sizing Information, Coil:Cooling:DX:VariableRefrigerantFlow, ZONE HVAC TERMINAL UNIT VARIABLE REFRIGERANT FLOW 1 COOLING COIL 9, Design Size Rated Air Flow Rate [m3/s], 2.18866
 Component Sizing Information, Coil:Cooling:DX:VariableRefrigerantFlow, ZONE HVAC TERMINAL UNIT VARIABLE REFRIGERANT FLOW 1 COOLING COIL 9, Design Size Gross Rated Total Cooling Capacity [W], 39344.33109
 Component Sizing Information, Coil:Cooling:DX:VariableRefrigerantFlow, ZONE HVAC TERMINAL UNIT VARIABLE REFRIGERANT FLOW 1 COOLING COIL 9, Design Size Gross Rated Sensible Heat Ratio, 0.80055
 Component Sizing Information, Coil:Heating:DX:VariableRefrigerantFlow, ZONE HVAC TERMINAL UNIT VARIABLE REFRIGERANT FLOW 1 HEATING COIL 9, Design Size Rated Air Flow Rate [m3/s], 2.18866
 Component Sizing Information, Coil:Heating:DX:VariableRefrigerantFlow, ZONE HVAC TERMINAL UNIT VARIABLE REFRIGERANT FLOW 1 HEATING COIL 9, Design Size Gross Rated Heating Capacity [W], 39344.33109
 Component Sizing Information, Fan:OnOff, CORE_MID ZN VRF UNIT CYCLING FAN, Design Size Maximum Flow Rate [m3/s], 2.18866
 Component Sizing Information, AirTerminal:SingleDuct:ConstantVolume:NoReheat, CORE_TOP ZN AIR TERMINAL, Design Size Maximum Air Flow Rate [m3/s], 0.42469
 Component Sizing Information, ZoneHVAC:TerminalUnit:VariableRefrigerantFlow, CORE_TOP ZN VRF TERMINAL UNIT, Design Size Cooling Supply Air Flow Rate [m3/s], 2.20937
 Component Sizing Information, ZoneHVAC:TerminalUnit:VariableRefrigerantFlow, CORE_TOP ZN VRF TERMINAL UNIT, Design Size Heating Supply Air Flow Rate [m3/s], 2.20937
 Component Sizing Information, ZoneHVAC:TerminalUnit:VariableRefrigerantFlow, CORE_TOP ZN VRF TERMINAL UNIT, Design Size No Cooling Supply Air Flow Rate [m3/s], 2.20937
 Component Sizing Information, ZoneHVAC:TerminalUnit:VariableRefrigerantFlow, CORE_TOP ZN VRF TERMINAL UNIT, Design Size No Heating Supply Air Flow Rate [m3/s], 2.20937
 Component Sizing Information, Coil:Cooling:DX:VariableRefrigerantFlow, ZONE HVAC TERMINAL UNIT VARIABLE REFRIGERANT FLOW 1 COOLING COIL 14, Design Size Rated Air Flow Rate [m3/s], 2.20937
 Component Sizing Information, Coil:Cooling:DX:VariableRefrigerantFlow, ZONE HVAC TERMINAL UNIT VARIABLE REFRIGERANT FLOW 1 COOLING COIL 14, Design Size Gross Rated Total Cooling Capacity [W], 39672.51634
 Component Sizing Information, Coil:Cooling:DX:VariableRefrigerantFlow, ZONE HVAC TERMINAL UNIT VARIABLE REFRIGERANT FLOW 1 COOLING COIL 14, Design Size Gross Rated Sensible Heat Ratio, 0.80093
 Component Sizing Information, Coil:Heating:DX:VariableRefrigerantFlow, ZONE HVAC TERMINAL UNIT VARIABLE REFRIGERANT FLOW 1 HEATING COIL 14, Design Size Rated Air Flow Rate [m3/s], 2.20937
 Component Sizing Information, Coil:Heating:DX:VariableRefrigerantFlow, ZONE HVAC TERMINAL UNIT VARIABLE REFRIGERANT FLOW 1 HEATING COIL 14, Design Size Gross Rated Heating Capacity [W], 39672.51634
 Component Sizing Information, Fan:OnOff, CORE_TOP ZN VRF UNIT CYCLING FAN, Design Size Maximum Flow Rate [m3/s], 2.20937
 Component Sizing Information, AirTerminal:SingleDuct:ConstantVolume:NoReheat, PERIMETER_BOT_ZN_1 ZN AIR TERMINAL, Design Size Maximum Air Flow Rate [m3/s], 8.95286E-002
 Component Sizing Information, ZoneHVAC:TerminalUnit:VariableRefrigerantFlow, PERIMETER_BOT_ZN_1 ZN VRF TERMINAL UNIT, Design Size Cooling Supply Air Flow Rate [m3/s], 0.78412
 Component Sizing Information, ZoneHVAC:TerminalUnit:VariableRefrigerantFlow, PERIMETER_BOT_ZN_1 ZN VRF TERMINAL UNIT, Design Size Heating Supply Air Flow Rate [m3/s], 0.78412
 Component Sizing Information, ZoneHVAC:TerminalUnit:VariableRefrigerantFlow, PERIMETER_BOT_ZN_1 ZN VRF TERMINAL UNIT, Design Size No Cooling Supply Air Flow Rate [m3/s], 0.78412
 Component Sizing Information, ZoneHVAC:TerminalUnit:VariableRefrigerantFlow, PERIMETER_BOT_ZN_1 ZN VRF TERMINAL UNIT, Design Size No Heating Supply Air Flow Rate [m3/s], 0.78412
 Component Sizing Information, Coil:Cooling:DX:VariableRefrigerantFlow, ZONE HVAC TERMINAL UNIT VARIABLE REFRIGERANT FLOW 1 COOLING COIL 3, Design Size Rated Air Flow Rate [m3/s], 0.78412
 Component Sizing Information, Coil:Cooling:DX:VariableRefrigerantFlow, ZONE HVAC TERMINAL UNIT VARIABLE REFRIGERANT FLOW 1 COOLING COIL 3, Design Size Gross Rated Total Cooling Capacity [W], 13716.02296
 Component Sizing Information, Coil:Cooling:DX:VariableRefrigerantFlow, ZONE HVAC TERMINAL UNIT VARIABLE REFRIGERANT FLOW 1 COOLING COIL 3, Design Size Gross Rated Sensible Heat Ratio, 0.80092
 Component Sizing Information, Coil:Heating:DX:VariableRefrigerantFlow, ZONE HVAC TERMINAL UNIT VARIABLE REFRIGERANT FLOW 1 HEATING COIL 3, Design Size Rated Air Flow Rate [m3/s], 0.78412
 Component Sizing Information, Coil:Heating:DX:VariableRefrigerantFlow, ZONE HVAC TERMINAL UNIT VARIABLE REFRIGERANT FLOW 1 HEATING COIL 3, Design Size Gross Rated Heating Capacity [W], 13716.02296
 Component Sizing Information, Fan:OnOff, PERIMETER_BOT_ZN_1 ZN VRF UNIT CYCLING FAN, Design Size Maximum Flow Rate [m3/s], 0.78412
 Component Sizing Information, AirTerminal:SingleDuct:ConstantVolume:NoReheat, PERIMETER_BOT_ZN_2 ZN AIR TERMINAL, Design Size Maximum Air Flow Rate [m3/s], 5.66790E-002
 Component Sizing Information, ZoneHVAC:TerminalUnit:VariableRefrigerantFlow, PERIMETER_BOT_ZN_2 ZN VRF TERMINAL UNIT, Design Size Cooling Supply Air Flow Rate [m3/s], 0.77499
 Component Sizing Information, ZoneHVAC:TerminalUnit:VariableRefrigerantFlow, PERIMETER_BOT_ZN_2 ZN VRF TERMINAL UNIT, Design Size Heating Supply Air Flow Rate [m3/s], 0.77499
 Component Sizing Information, ZoneHVAC:TerminalUnit:VariableRefrigerantFlow, PERIMETER_BOT_ZN_2 ZN VRF TERMINAL UNIT, Design Size No Cooling Supply Air Flow Rate [m3/s], 0.77499
 Component Sizing Information, ZoneHVAC:TerminalUnit:VariableRefrigerantFlow, PERIMETER_BOT_ZN_2 ZN VRF TERMINAL UNIT, Design Size No Heating Supply Air Flow Rate [m3/s], 0.77499
 Component Sizing Information, Coil:Cooling:DX:VariableRefrigerantFlow, ZONE HVAC TERMINAL UNIT VARIABLE REFRIGERANT FLOW 1 COOLING COIL 2, Design Size Rated Air Flow Rate [m3/s], 0.77499
 Component Sizing Information, Coil:Cooling:DX:VariableRefrigerantFlow, ZONE HVAC TERMINAL UNIT VARIABLE REFRIGERANT FLOW 1 COOLING COIL 2, Design Size Gross Rated Total Cooling Capacity [W], 12828.78464
 Component Sizing Information, Coil:Cooling:DX:VariableRefrigerantFlow, ZONE HVAC TERMINAL UNIT VARIABLE REFRIGERANT FLOW 1 COOLING COIL 2, Design Size Gross Rated Sensible Heat Ratio, 0.80066
 Component Sizing Information, Coil:Heating:DX:VariableRefrigerantFlow, ZONE HVAC TERMINAL UNIT VARIABLE REFRIGERANT FLOW 1 HEATING COIL 2, Design Size Rated Air Flow Rate [m3/s], 0.77499
 Component Sizing Information, Coil:Heating:DX:VariableRefrigerantFlow, ZONE HVAC TERMINAL UNIT VARIABLE REFRIGERANT FLOW 1 HEATING COIL 2, Design Size Gross Rated Heating Capacity [W], 12828.78464
 Component Sizing Information, Fan:OnOff, PERIMETER_BOT_ZN_2 ZN VRF UNIT CYCLING FAN, Design Size Maximum Flow Rate [m3/s], 0.77499
 Component Sizing Information, AirTerminal:SingleDuct:ConstantVolume:NoReheat, PERIMETER_BOT_ZN_3 ZN AIR TERMINAL, Design Size Maximum Air Flow Rate [m3/s], 8.95286E-002
 Component Sizing Information, ZoneHVAC:TerminalUnit:VariableRefrigerantFlow, PERIMETER_BOT_ZN_3 ZN VRF TERMINAL UNIT, Design Size Cooling Supply Air Flow Rate [m3/s], 0.48057
 Component Sizing Information, ZoneHVAC:TerminalUnit:VariableRefrigerantFlow, PERIMETER_BOT_ZN_3 ZN VRF TERMINAL UNIT, Design Size Heating Supply Air Flow Rate [m3/s], 0.48057
 Component Sizing Information, ZoneHVAC:TerminalUnit:VariableRefrigerantFlow, PERIMETER_BOT_ZN_3 ZN VRF TERMINAL UNIT, Design Size No Cooling Supply Air Flow Rate [m3/s], 0.48057
 Component Sizing Information, ZoneHVAC:TerminalUnit:VariableRefrigerantFlow, PERIMETER_BOT_ZN_3 ZN VRF TERMINAL UNIT, Design Size No Heating Supply Air Flow Rate [m3/s], 0.48057
 Component Sizing Information, Coil:Cooling:DX:VariableRefrigerantFlow, ZONE HVAC TERMINAL UNIT VARIABLE REFRIGERANT FLOW 1 COOLING COIL, Design Size Rated Air Flow Rate [m3/s], 0.48057
 Component Sizing Information, Coil:Cooling:DX:VariableRefrigerantFlow, ZONE HVAC TERMINAL UNIT VARIABLE REFRIGERANT FLOW 1 COOLING COIL, Design Size Gross Rated Total Cooling Capacity [W], 8955.28212
 Component Sizing Information, Coil:Cooling:DX:VariableRefrigerantFlow, ZONE HVAC TERMINAL UNIT VARIABLE REFRIGERANT FLOW 1 COOLING COIL, Design Size Gross Rated Sensible Heat Ratio, 0.80059
 Component Sizing Information, Coil:Heating:DX:VariableRefrigerantFlow, ZONE HVAC TERMINAL UNIT VARIABLE REFRIGERANT FLOW 1 HEATING COIL, Design Size Rated Air Flow Rate [m3/s], 0.48057
 Component Sizing Information, Coil:Heating:DX:VariableRefrigerantFlow, ZONE HVAC TERMINAL UNIT VARIABLE REFRIGERANT FLOW 1 HEATING COIL, Design Size Gross Rated Heating Capacity [W], 8955.28212
 Component Sizing Information, Fan:OnOff, PERIMETER_BOT_ZN_3 ZN VRF UNIT CYCLING FAN, Design Size Maximum Flow Rate [m3/s], 0.48057
 Component Sizing Information, AirTerminal:SingleDuct:ConstantVolume:NoReheat, PERIMETER_BOT_ZN_4 ZN AIR TERMINAL, Design Size Maximum Air Flow Rate [m3/s], 5.66753E-002
 Component Sizing Information, ZoneHVAC:TerminalUnit:VariableRefrigerantFlow, PERIMETER_BOT_ZN_4 ZN VRF TERMINAL UNIT, Design Size Cooling Supply Air Flow Rate [m3/s], 0.78623
 Component Sizing Information, ZoneHVAC:TerminalUnit:VariableRefrigerantFlow, PERIMETER_BOT_ZN_4 ZN VRF TERMINAL UNIT, Design Size Heating Supply Air Flow Rate [m3/s], 0.78623
 Component Sizing Information, ZoneHVAC:TerminalUnit:VariableRefrigerantFlow, PERIMETER_BOT_ZN_4 ZN VRF TERMINAL UNIT, Design Size No Cooling Supply Air Flow Rate [m3/s], 0.78623
 Component Sizing Information, ZoneHVAC:TerminalUnit:VariableRefrigerantFlow, PERIMETER_BOT_ZN_4 ZN VRF TERMINAL UNIT, Design Size No Heating Supply Air Flow Rate [m3/s], 0.78623
 Component Sizing Information, Coil:Cooling:DX:VariableRefrigerantFlow, ZONE HVAC TERMINAL UNIT VARIABLE REFRIGERANT FLOW 1 COOLING COIL 1, Design Size Rated Air Flow Rate [m3/s], 0.78623
 Component Sizing Information, Coil:Cooling:DX:VariableRefrigerantFlow, ZONE HVAC TERMINAL UNIT VARIABLE REFRIGERANT FLOW 1 COOLING COIL 1, Design Size Gross Rated Total Cooling Capacity [W], 13135.75535
 Component Sizing Information, Coil:Cooling:DX:VariableRefrigerantFlow, ZONE HVAC TERMINAL UNIT VARIABLE REFRIGERANT FLOW 1 COOLING COIL 1, Design Size Gross Rated Sensible Heat Ratio, 0.80027
 Component Sizing Information, Coil:Heating:DX:VariableRefrigerantFlow, ZONE HVAC TERMINAL UNIT VARIABLE REFRIGERANT FLOW 1 HEATING COIL 1, Design Size Rated Air Flow Rate [m3/s], 0.78623
 Component Sizing Information, Coil:Heating:DX:VariableRefrigerantFlow, ZONE HVAC TERMINAL UNIT VARIABLE REFRIGERANT FLOW 1 HEATING COIL 1, Design Size Gross Rated Heating Capacity [W], 13135.75535
 Component Sizing Information, Fan:OnOff, PERIMETER_BOT_ZN_4 ZN VRF UNIT CYCLING FAN, Design Size Maximum Flow Rate [m3/s], 0.78623
 Component Sizing Information, AirConditioner:VariableRefrigerantFlow, 5 ZONE VRF SYSTEM, Design Size Rated Total Cooling Capacity (gross) [W], 100472.52808
 Component Sizing Information, AirConditioner:VariableRefrigerantFlow, 5 ZONE VRF SYSTEM, Design Size Rated Total Heating Capacity [W], 100472.52808
 Component Sizing Information, AirConditioner:VariableRefrigerantFlow, 5 ZONE VRF SYSTEM, Design Size Evaporative Condenser Air Flow Rate [m3/s], 11.45387
 Component Sizing Information, AirConditioner:VariableRefrigerantFlow, 5 ZONE VRF SYSTEM, Design Size Evaporative Condenser Pump Rated Power Consumption [W], 428.61580
! <VRF System Information>, VRF System Type, VRF System Name, VRF System Cooling Combination Ratio, VRF System Heating Combination Ratio, VRF System Cooling Piping Correction Factor, VRF System Heating Piping Correction Factor
 VRF System Information, AirConditioner:VariableRefrigerantFlow, 5 ZONE VRF SYSTEM, 1.00000, 1.00000, 0.94555, 1.00000
 Component Sizing Information, AirTerminal:SingleDuct:ConstantVolume:NoReheat, PERIMETER_MID_ZN_1 ZN AIR TERMINAL, Design Size Maximum Air Flow Rate [m3/s], 8.95286E-002
 Component Sizing Information, ZoneHVAC:TerminalUnit:VariableRefrigerantFlow, PERIMETER_MID_ZN_1 ZN VRF TERMINAL UNIT, Design Size Cooling Supply Air Flow Rate [m3/s], 0.89857
 Component Sizing Information, ZoneHVAC:TerminalUnit:VariableRefrigerantFlow, PERIMETER_MID_ZN_1 ZN VRF TERMINAL UNIT, Design Size Heating Supply Air Flow Rate [m3/s], 0.89857
 Component Sizing Information, ZoneHVAC:TerminalUnit:VariableRefrigerantFlow, PERIMETER_MID_ZN_1 ZN VRF TERMINAL UNIT, Design Size No Cooling Supply Air Flow Rate [m3/s], 0.89857
 Component Sizing Information, ZoneHVAC:TerminalUnit:VariableRefrigerantFlow, PERIMETER_MID_ZN_1 ZN VRF TERMINAL UNIT, Design Size No Heating Supply Air Flow Rate [m3/s], 0.89857
 Component Sizing Information, Coil:Cooling:DX:VariableRefrigerantFlow, ZONE HVAC TERMINAL UNIT VARIABLE REFRIGERANT FLOW 1 COOLING COIL 8, Design Size Rated Air Flow Rate [m3/s], 0.89857
 Component Sizing Information, Coil:Cooling:DX:VariableRefrigerantFlow, ZONE HVAC TERMINAL UNIT VARIABLE REFRIGERANT FLOW 1 COOLING COIL 8, Design Size Gross Rated Total Cooling Capacity [W], 15544.49527
 Component Sizing Information, Coil:Cooling:DX:VariableRefrigerantFlow, ZONE HVAC TERMINAL UNIT VARIABLE REFRIGERANT FLOW 1 COOLING COIL 8, Design Size Gross Rated Sensible Heat Ratio, 0.80081
 Component Sizing Information, Coil:Heating:DX:VariableRefrigerantFlow, ZONE HVAC TERMINAL UNIT VARIABLE REFRIGERANT FLOW 1 HEATING COIL 8, Design Size Rated Air Flow Rate [m3/s], 0.89857
 Component Sizing Information, Coil:Heating:DX:VariableRefrigerantFlow, ZONE HVAC TERMINAL UNIT VARIABLE REFRIGERANT FLOW 1 HEATING COIL 8, Design Size Gross Rated Heating Capacity [W], 15544.49527
 Component Sizing Information, Fan:OnOff, PERIMETER_MID_ZN_1 ZN VRF UNIT CYCLING FAN, Design Size Maximum Flow Rate [m3/s], 0.89857
 Component Sizing Information, AirTerminal:SingleDuct:ConstantVolume:NoReheat, PERIMETER_MID_ZN_2 ZN AIR TERMINAL, Design Size Maximum Air Flow Rate [m3/s], 5.66790E-002
 Component Sizing Information, ZoneHVAC:TerminalUnit:VariableRefrigerantFlow, PERIMETER_MID_ZN_2 ZN VRF TERMINAL UNIT, Design Size Cooling Supply Air Flow Rate [m3/s], 0.85862
 Component Sizing Information, ZoneHVAC:TerminalUnit:VariableRefrigerantFlow, PERIMETER_MID_ZN_2 ZN VRF TERMINAL UNIT, Design Size Heating Supply Air Flow Rate [m3/s], 0.85862
 Component Sizing Information, ZoneHVAC:TerminalUnit:VariableRefrigerantFlow, PERIMETER_MID_ZN_2 ZN VRF TERMINAL UNIT, Design Size No Cooling Supply Air Flow Rate [m3/s], 0.85862
 Component Sizing Information, ZoneHVAC:TerminalUnit:VariableRefrigerantFlow, PERIMETER_MID_ZN_2 ZN VRF TERMINAL UNIT, Design Size No Heating Supply Air Flow Rate [m3/s], 0.85862
 Component Sizing Information, Coil:Cooling:DX:VariableRefrigerantFlow, ZONE HVAC TERMINAL UNIT VARIABLE REFRIGERANT FLOW 1 COOLING COIL 6, Design Size Rated Air Flow Rate [m3/s], 0.85862
 Component Sizing Information, Coil:Cooling:DX:VariableRefrigerantFlow, ZONE HVAC TERMINAL UNIT VARIABLE REFRIGERANT FLOW 1 COOLING COIL 6, Design Size Gross Rated Total Cooling Capacity [W], 14213.13034
 Component Sizing Information, Coil:Cooling:DX:VariableRefrigerantFlow, ZONE HVAC TERMINAL UNIT VARIABLE REFRIGERANT FLOW 1 COOLING COIL 6, Design Size Gross Rated Sensible Heat Ratio, 0.80066
 Component Sizing Information, Coil:Heating:DX:VariableRefrigerantFlow, ZONE HVAC TERMINAL UNIT VARIABLE REFRIGERANT FLOW 1 HEATING COIL 6, Design Size Rated Air Flow Rate [m3/s], 0.85862
 Component Sizing Information, Coil:Heating:DX:VariableRefrigerantFlow, ZONE HVAC TERMINAL UNIT VARIABLE REFRIGERANT FLOW 1 HEATING COIL 6, Design Size Gross Rated Heating Capacity [W], 14213.13034
 Component Sizing Information, Fan:OnOff, PERIMETER_MID_ZN_2 ZN VRF UNIT CYCLING FAN, Design Size Maximum Flow Rate [m3/s], 0.85862
 Component Sizing Information, AirTerminal:SingleDuct:ConstantVolume:NoReheat, PERIMETER_MID_ZN_3 ZN AIR TERMINAL, Design Size Maximum Air Flow Rate [m3/s], 8.95286E-002
 Component Sizing Information, ZoneHVAC:TerminalUnit:VariableRefrigerantFlow, PERIMETER_MID_ZN_3 ZN VRF TERMINAL UNIT, Design Size Cooling Supply Air Flow Rate [m3/s], 0.58966
 Component Sizing Information, ZoneHVAC:TerminalUnit:VariableRefrigerantFlow, PERIMETER_MID_ZN_3 ZN VRF TERMINAL UNIT, Design Size Heating Supply Air Flow Rate [m3/s], 0.58966
 Component Sizing Information, ZoneHVAC:TerminalUnit:VariableRefrigerantFlow, PERIMETER_MID_ZN_3 ZN VRF TERMINAL UNIT, Design Size No Cooling Supply Air Flow Rate [m3/s], 0.58966
 Component Sizing Information, ZoneHVAC:TerminalUnit:VariableRefrigerantFlow, PERIMETER_MID_ZN_3 ZN VRF TERMINAL UNIT, Design Size No Heating Supply Air Flow Rate [m3/s], 0.58966
 Component Sizing Information, Coil:Cooling:DX:VariableRefrigerantFlow, ZONE HVAC TERMINAL UNIT VARIABLE REFRIGERANT FLOW 1 COOLING COIL 7, Design Size Rated Air Flow Rate [m3/s], 0.58966
 Component Sizing Information, Coil:Cooling:DX:VariableRefrigerantFlow, ZONE HVAC TERMINAL UNIT VARIABLE REFRIGERANT FLOW 1 COOLING COIL 7, Design Size Gross Rated Total Cooling Capacity [W], 10728.27411
 Component Sizing Information, Coil:Cooling:DX:VariableRefrigerantFlow, ZONE HVAC TERMINAL UNIT VARIABLE REFRIGERANT FLOW 1 COOLING COIL 7, Design Size Gross Rated Sensible Heat Ratio, 0.80051
 Component Sizing Information, Coil:Heating:DX:VariableRefrigerantFlow, ZONE HVAC TERMINAL UNIT VARIABLE REFRIGERANT FLOW 1 HEATING COIL 7, Design Size Rated Air Flow Rate [m3/s], 0.58966
 Component Sizing Information, Coil:Heating:DX:VariableRefrigerantFlow, ZONE HVAC TERMINAL UNIT VARIABLE REFRIGERANT FLOW 1 HEATING COIL 7, Design Size Gross Rated Heating Capacity [W], 10728.27411
 Component Sizing Information, Fan:OnOff, PERIMETER_MID_ZN_3 ZN VRF UNIT CYCLING FAN, Design Size Maximum Flow Rate [m3/s], 0.58966
 Component Sizing Information, AirTerminal:SingleDuct:ConstantVolume:NoReheat, PERIMETER_MID_ZN_4 ZN AIR TERMINAL, Design Size Maximum Air Flow Rate [m3/s], 5.66753E-002
 Component Sizing Information, ZoneHVAC:TerminalUnit:VariableRefrigerantFlow, PERIMETER_MID_ZN_4 ZN VRF TERMINAL UNIT, Design Size Cooling Supply Air Flow Rate [m3/s], 0.86259
 Component Sizing Information, ZoneHVAC:TerminalUnit:VariableRefrigerantFlow, PERIMETER_MID_ZN_4 ZN VRF TERMINAL UNIT, Design Size Heating Supply Air Flow Rate [m3/s], 0.86259
 Component Sizing Information, ZoneHVAC:TerminalUnit:VariableRefrigerantFlow, PERIMETER_MID_ZN_4 ZN VRF TERMINAL UNIT, Design Size No Cooling Supply Air Flow Rate [m3/s], 0.86259
 Component Sizing Information, ZoneHVAC:TerminalUnit:VariableRefrigerantFlow, PERIMETER_MID_ZN_4 ZN VRF TERMINAL UNIT, Design Size No Heating Supply Air Flow Rate [m3/s], 0.86259
 Component Sizing Information, Coil:Cooling:DX:VariableRefrigerantFlow, ZONE HVAC TERMINAL UNIT VARIABLE REFRIGERANT FLOW 1 COOLING COIL 5, Design Size Rated Air Flow Rate [m3/s], 0.86259
 Component Sizing Information, Coil:Cooling:DX:VariableRefrigerantFlow, ZONE HVAC TERMINAL UNIT VARIABLE REFRIGERANT FLOW 1 COOLING COIL 5, Design Size Gross Rated Total Cooling Capacity [W], 14343.35722
 Component Sizing Information, Coil:Cooling:DX:VariableRefrigerantFlow, ZONE HVAC TERMINAL UNIT VARIABLE REFRIGERANT FLOW 1 COOLING COIL 5, Design Size Gross Rated Sensible Heat Ratio, 0.80001
 Component Sizing Information, Coil:Heating:DX:VariableRefrigerantFlow, ZONE HVAC TERMINAL UNIT VARIABLE REFRIGERANT FLOW 1 HEATING COIL 5, Design Size Rated Air Flow Rate [m3/s], 0.86259
 Component Sizing Information, Coil:Heating:DX:VariableRefrigerantFlow, ZONE HVAC TERMINAL UNIT VARIABLE REFRIGERANT FLOW 1 HEATING COIL 5, Design Size Gross Rated Heating Capacity [W], 14343.35722
 Component Sizing Information, Fan:OnOff, PERIMETER_MID_ZN_4 ZN VRF UNIT CYCLING FAN, Design Size Maximum Flow Rate [m3/s], 0.86259
 Component Sizing Information, AirConditioner:VariableRefrigerantFlow, 5 ZONE VRF SYSTEM 1, Design Size Rated Total Cooling Capacity (gross) [W], 94173.58803
 Component Sizing Information, AirConditioner:VariableRefrigerantFlow, 5 ZONE VRF SYSTEM 1, Design Size Rated Total Heating Capacity [W], 94173.58803
 Component Sizing Information, AirConditioner:VariableRefrigerantFlow, 5 ZONE VRF SYSTEM 1, Design Size Evaporative Condenser Air Flow Rate [m3/s], 10.73579
 Component Sizing Information, AirConditioner:VariableRefrigerantFlow, 5 ZONE VRF SYSTEM 1, Design Size Evaporative Condenser Pump Rated Power Consumption [W], 401.74453
 VRF System Information, AirConditioner:VariableRefrigerantFlow, 5 ZONE VRF SYSTEM 1, 1.00000, 1.00000, 0.94555, 1.00000
 Component Sizing Information, AirTerminal:SingleDuct:ConstantVolume:NoReheat, PERIMETER_TOP_ZN_1 ZN AIR TERMINAL, Design Size Maximum Air Flow Rate [m3/s], 8.95286E-002
 Component Sizing Information, ZoneHVAC:TerminalUnit:VariableRefrigerantFlow, PERIMETER_TOP_ZN_1 ZN VRF TERMINAL UNIT, Design Size Cooling Supply Air Flow Rate [m3/s], 0.96595
 Component Sizing Information, ZoneHVAC:TerminalUnit:VariableRefrigerantFlow, PERIMETER_TOP_ZN_1 ZN VRF TERMINAL UNIT, Design Size Heating Supply Air Flow Rate [m3/s], 0.96595
 Component Sizing Information, ZoneHVAC:TerminalUnit:VariableRefrigerantFlow, PERIMETER_TOP_ZN_1 ZN VRF TERMINAL UNIT, Design Size No Cooling Supply Air Flow Rate [m3/s], 0.96595
 Component Sizing Information, ZoneHVAC:TerminalUnit:VariableRefrigerantFlow, PERIMETER_TOP_ZN_1 ZN VRF TERMINAL UNIT, Design Size No Heating Supply Air Flow Rate [m3/s], 0.96595
 Component Sizing Information, Coil:Cooling:DX:VariableRefrigerantFlow, ZONE HVAC TERMINAL UNIT VARIABLE REFRIGERANT FLOW 1 COOLING COIL 13, Design Size Rated Air Flow Rate [m3/s], 0.96595
 Component Sizing Information, Coil:Cooling:DX:VariableRefrigerantFlow, ZONE HVAC TERMINAL UNIT VARIABLE REFRIGERANT FLOW 1 COOLING COIL 13, Design Size Gross Rated Total Cooling Capacity [W], 16627.44088
 Component Sizing Information, Coil:Cooling:DX:VariableRefrigerantFlow, ZONE HVAC TERMINAL UNIT VARIABLE REFRIGERANT FLOW 1 COOLING COIL 13, Design Size Gross Rated Sensible Heat Ratio, 0.80056
 Component Sizing Information, Coil:Heating:DX:VariableRefrigerantFlow, ZONE HVAC TERMINAL UNIT VARIABLE REFRIGERANT FLOW 1 HEATING COIL 13, Design Size Rated Air Flow Rate [m3/s], 0.96595
 Component Sizing Information, Coil:Heating:DX:VariableRefrigerantFlow, ZONE HVAC TERMINAL UNIT VARIABLE REFRIGERANT FLOW 1 HEATING COIL 13, Design Size Gross Rated Heating Capacity [W], 16627.44088
 Component Sizing Information, Fan:OnOff, PERIMETER_TOP_ZN_1 ZN VRF UNIT CYCLING FAN, Design Size Maximum Flow Rate [m3/s], 0.96595
 Component Sizing Information, AirTerminal:SingleDuct:ConstantVolume:NoReheat, PERIMETER_TOP_ZN_2 ZN AIR TERMINAL, Design Size Maximum Air Flow Rate [m3/s], 5.66790E-002
 Component Sizing Information, ZoneHVAC:TerminalUnit:VariableRefrigerantFlow, PERIMETER_TOP_ZN_2 ZN VRF TERMINAL UNIT, Design Size Cooling Supply Air Flow Rate [m3/s], 0.85979
 Component Sizing Information, ZoneHVAC:TerminalUnit:VariableRefrigerantFlow, PERIMETER_TOP_ZN_2 ZN VRF TERMINAL UNIT, Design Size Heating Supply Air Flow Rate [m3/s], 0.85979
 Component Sizing Information, ZoneHVAC:TerminalUnit:VariableRefrigerantFlow, PERIMETER_TOP_ZN_2 ZN VRF TERMINAL UNIT, Design Size No Cooling Supply Air Flow Rate [m3/s], 0.85979
 Component Sizing Information, ZoneHVAC:TerminalUnit:VariableRefrigerantFlow, PERIMETER_TOP_ZN_2 ZN VRF TERMINAL UNIT, Design Size No Heating Supply Air Flow Rate [m3/s], 0.85979
 Component Sizing Information, Coil:Cooling:DX:VariableRefrigerantFlow, ZONE HVAC TERMINAL UNIT VARIABLE REFRIGERANT FLOW 1 COOLING COIL 11, Design Size Rated Air Flow Rate [m3/s], 0.85979
 Component Sizing Information, Coil:Cooling:DX:VariableRefrigerantFlow, ZONE HVAC TERMINAL UNIT VARIABLE REFRIGERANT FLOW 1 COOLING COIL 11, Design Size Gross Rated Total Cooling Capacity [W], 14232.53696
 Component Sizing Information, Coil:Cooling:DX:VariableRefrigerantFlow, ZONE HVAC TERMINAL UNIT VARIABLE REFRIGERANT FLOW 1 COOLING COIL 11, Design Size Gross Rated Sensible Heat Ratio, 0.80066
 Component Sizing Information, Coil:Heating:DX:VariableRefrigerantFlow, ZONE HVAC TERMINAL UNIT VARIABLE REFRIGERANT FLOW 1 HEATING COIL 11, Design Size Rated Air Flow Rate [m3/s], 0.85979
 Component Sizing Information, Coil:Heating:DX:VariableRefrigerantFlow, ZONE HVAC TERMINAL UNIT VARIABLE REFRIGERANT FLOW 1 HEATING COIL 11, Design Size Gross Rated Heating Capacity [W], 14232.53696
 Component Sizing Information, Fan:OnOff, PERIMETER_TOP_ZN_2 ZN VRF UNIT CYCLING FAN, Design Size Maximum Flow Rate [m3/s], 0.85979
 Component Sizing Information, AirTerminal:SingleDuct:ConstantVolume:NoReheat, PERIMETER_TOP_ZN_3 ZN AIR TERMINAL, Design Size Maximum Air Flow Rate [m3/s], 8.95286E-002
 Component Sizing Information, ZoneHVAC:TerminalUnit:VariableRefrigerantFlow, PERIMETER_TOP_ZN_3 ZN VRF TERMINAL UNIT, Design Size Cooling Supply Air Flow Rate [m3/s], 0.66534
 Component Sizing Information, ZoneHVAC:TerminalUnit:VariableRefrigerantFlow, PERIMETER_TOP_ZN_3 ZN VRF TERMINAL UNIT, Design Size Heating Supply Air Flow Rate [m3/s], 0.66534
 Component Sizing Information, ZoneHVAC:TerminalUnit:VariableRefrigerantFlow, PERIMETER_TOP_ZN_3 ZN VRF TERMINAL UNIT, Design Size No Cooling Supply Air Flow Rate [m3/s], 0.66534
 Component Sizing Information, ZoneHVAC:TerminalUnit:VariableRefrigerantFlow, PERIMETER_TOP_ZN_3 ZN VRF TERMINAL UNIT, Design Size No Heating Supply Air Flow Rate [m3/s], 0.66534
 Component Sizing Information, Coil:Cooling:DX:VariableRefrigerantFlow, ZONE HVAC TERMINAL UNIT VARIABLE REFRIGERANT FLOW 1 COOLING COIL 12, Design Size Rated Air Flow Rate [m3/s], 0.66534
 Component Sizing Information, Coil:Cooling:DX:VariableRefrigerantFlow, ZONE HVAC TERMINAL UNIT VARIABLE REFRIGERANT FLOW 1 COOLING COIL 12, Design Size Gross Rated Total Cooling Capacity [W], 11947.31282
 Component Sizing Information, Coil:Cooling:DX:VariableRefrigerantFlow, ZONE HVAC TERMINAL UNIT VARIABLE REFRIGERANT FLOW 1 COOLING COIL 12, Design Size Gross Rated Sensible Heat Ratio, 0.80093
 Component Sizing Information, Coil:Heating:DX:VariableRefrigerantFlow, ZONE HVAC TERMINAL UNIT VARIABLE REFRIGERANT FLOW 1 HEATING COIL 12, Design Size Rated Air Flow Rate [m3/s], 0.66534
 Component Sizing Information, Coil:Heating:DX:VariableRefrigerantFlow, ZONE HVAC TERMINAL UNIT VARIABLE REFRIGERANT FLOW 1 HEATING COIL 12, Design Size Gross Rated Heating Capacity [W], 11947.31282
 Component Sizing Information, Fan:OnOff, PERIMETER_TOP_ZN_3 ZN VRF UNIT CYCLING FAN, Design Size Maximum Flow Rate [m3/s], 0.66534
 Component Sizing Information, AirTerminal:SingleDuct:ConstantVolume:NoReheat, PERIMETER_TOP_ZN_4 ZN AIR TERMINAL, Design Size Maximum Air Flow Rate [m3/s], 5.66753E-002
 Component Sizing Information, ZoneHVAC:TerminalUnit:VariableRefrigerantFlow, PERIMETER_TOP_ZN_4 ZN VRF TERMINAL UNIT, Design Size Cooling Supply Air Flow Rate [m3/s], 0.90836
 Component Sizing Information, ZoneHVAC:TerminalUnit:VariableRefrigerantFlow, PERIMETER_TOP_ZN_4 ZN VRF TERMINAL UNIT, Design Size Heating Supply Air Flow Rate [m3/s], 0.90836
 Component Sizing Information, ZoneHVAC:TerminalUnit:VariableRefrigerantFlow, PERIMETER_TOP_ZN_4 ZN VRF TERMINAL UNIT, Design Size No Cooling Supply Air Flow Rate [m3/s], 0.90836
 Component Sizing Information, ZoneHVAC:TerminalUnit:VariableRefrigerantFlow, PERIMETER_TOP_ZN_4 ZN VRF TERMINAL UNIT, Design Size No Heating Supply Air Flow Rate [m3/s], 0.90836
 Component Sizing Information, Coil:Cooling:DX:VariableRefrigerantFlow, ZONE HVAC TERMINAL UNIT VARIABLE REFRIGERANT FLOW 1 COOLING COIL 10, Design Size Rated Air Flow Rate [m3/s], 0.90836
 Component Sizing Information, Coil:Cooling:DX:VariableRefrigerantFlow, ZONE HVAC TERMINAL UNIT VARIABLE REFRIGERANT FLOW 1 COOLING COIL 10, Design Size Gross Rated Total Cooling Capacity [W], 15077.05072
 Component Sizing Information, Coil:Cooling:DX:VariableRefrigerantFlow, ZONE HVAC TERMINAL UNIT VARIABLE REFRIGERANT FLOW 1 COOLING COIL 10, Design Size Gross Rated Sensible Heat Ratio, 0.80067
 Component Sizing Information, Coil:Heating:DX:VariableRefrigerantFlow, ZONE HVAC TERMINAL UNIT VARIABLE REFRIGERANT FLOW 1 HEATING COIL 10, Design Size Rated Air Flow Rate [m3/s], 0.90836
 Component Sizing Information, Coil:Heating:DX:VariableRefrigerantFlow, ZONE HVAC TERMINAL UNIT VARIABLE REFRIGERANT FLOW 1 HEATING COIL 10, Design Size Gross Rated Heating Capacity [W], 15077.05072
 Component Sizing Information, Fan:OnOff, PERIMETER_TOP_ZN_4 ZN VRF UNIT CYCLING FAN, Design Size Maximum Flow Rate [m3/s], 0.90836
 Component Sizing Information, AirConditioner:VariableRefrigerantFlow, 5 ZONE VRF SYSTEM 2, Design Size Rated Total Cooling Capacity (gross) [W], 97556.85772
 Component Sizing Information, AirConditioner:VariableRefrigerantFlow, 5 ZONE VRF SYSTEM 2, Design Size Rated Total Heating Capacity [W], 97556.85772
 Component Sizing Information, AirConditioner:VariableRefrigerantFlow, 5 ZONE VRF SYSTEM 2, Design Size Evaporative Condenser Air Flow Rate [m3/s], 11.12148
 Component Sizing Information, AirConditioner:VariableRefrigerantFlow, 5 ZONE VRF SYSTEM 2, Design Size Evaporative Condenser Pump Rated Power Consumption [W], 416.17756
 VRF System Information, AirConditioner:VariableRefrigerantFlow, 5 ZONE VRF SYSTEM 2, 1.00000, 1.00000, 0.94555, 1.00000
 Component Sizing Information, AirLoopHVAC, 5 ZONE DOAS, Sum of Air Terminal Maximum Heating Flow Rates [m3/s], 0.00000
 Component Sizing Information, AirLoopHVAC, 5 ZONE DOAS, Sum of Air Terminal Minimum Heating Flow Rates [m3/s], 0.00000
 Component Sizing Information, AirLoopHVAC, 5 ZONE DOAS, Sum of Air Terminal Maximum Flow Rates [m3/s], 0.71710
 Component Sizing Information, AirLoopHVAC, 5 ZONE DOAS, Adjusted Heating Design Air Flow Rate [m3/s], 0.71710
 Component Sizing Information, AirLoopHVAC, 5 ZONE DOAS, Adjusted Cooling Design Air Flow Rate [m3/s], 0.71710
 Component Sizing Information, AirLoopHVAC, 5 ZONE DOAS, Adjusted Main Design Air Flow Rate [m3/s], 0.71710
 Component Sizing Information, AirLoopHVAC, 5 ZONE DOAS, User Heating Air Flow Ratio [], 1.00000
 Component Sizing Information, AirLoopHVAC, 5 ZONE DOAS, Calculated Heating Air Flow Ratio [], 1.00000
 Component Sizing Information, AirLoopHVAC, 5 ZONE DOAS 1, Sum of Air Terminal Maximum Heating Flow Rates [m3/s], 0.00000
 Component Sizing Information, AirLoopHVAC, 5 ZONE DOAS 1, Sum of Air Terminal Minimum Heating Flow Rates [m3/s], 0.00000
 Component Sizing Information, AirLoopHVAC, 5 ZONE DOAS 1, Sum of Air Terminal Maximum Flow Rates [m3/s], 0.71710
 Component Sizing Information, AirLoopHVAC, 5 ZONE DOAS 1, Adjusted Heating Design Air Flow Rate [m3/s], 0.71710
 Component Sizing Information, AirLoopHVAC, 5 ZONE DOAS 1, Adjusted Cooling Design Air Flow Rate [m3/s], 0.71710
 Component Sizing Information, AirLoopHVAC, 5 ZONE DOAS 1, Adjusted Main Design Air Flow Rate [m3/s], 0.71710
 Component Sizing Information, AirLoopHVAC, 5 ZONE DOAS 1, User Heating Air Flow Ratio [], 1.00000
 Component Sizing Information, AirLoopHVAC, 5 ZONE DOAS 1, Calculated Heating Air Flow Ratio [], 1.00000
 Component Sizing Information, AirLoopHVAC, 5 ZONE DOAS 2, Sum of Air Terminal Maximum Heating Flow Rates [m3/s], 0.00000
 Component Sizing Information, AirLoopHVAC, 5 ZONE DOAS 2, Sum of Air Terminal Minimum Heating Flow Rates [m3/s], 0.00000
 Component Sizing Information, AirLoopHVAC, 5 ZONE DOAS 2, Sum of Air Terminal Maximum Flow Rates [m3/s], 0.71710
 Component Sizing Information, AirLoopHVAC, 5 ZONE DOAS 2, Adjusted Heating Design Air Flow Rate [m3/s], 0.71710
 Component Sizing Information, AirLoopHVAC, 5 ZONE DOAS 2, Adjusted Cooling Design Air Flow Rate [m3/s], 0.71710
 Component Sizing Information, AirLoopHVAC, 5 ZONE DOAS 2, Adjusted Main Design Air Flow Rate [m3/s], 0.71710
 Component Sizing Information, AirLoopHVAC, 5 ZONE DOAS 2, User Heating Air Flow Ratio [], 1.00000
 Component Sizing Information, AirLoopHVAC, 5 ZONE DOAS 2, Calculated Heating Air Flow Ratio [], 1.00000
 Component Sizing Information, AirLoopHVAC, 5 ZONE DOAS, Design Supply Air Flow Rate [m3/s], 0.71710
 Component Sizing Information, AirLoopHVAC, 5 ZONE DOAS 1, Design Supply Air Flow Rate [m3/s], 0.71710
 Component Sizing Information, AirLoopHVAC, 5 ZONE DOAS 2, Design Supply Air Flow Rate [m3/s], 0.71710
 Component Sizing Information, Fan:ConstantVolume, DOAS EXHAUST FAN, Design Size Maximum Flow Rate [m3/s], 0.71710
!<Controller:MechanicalVentilation>,Name,Availability Schedule Name,Demand Controlled Ventilation {Yes/No},System Outdoor Air Method,Zone Maximum Outdoor Air Fraction,Number of Zones,Zone Name,DSOA Name,DSZAD Name
 Controller:MechanicalVentilation,5 ZONE DOAS MECHANICAL VENTILATION CONTROLLER,5 ZONE DOAS OCC SCH,No,ZoneSum,1.00,5,CORE_BOTTOM ZN,OFFICE WHOLEBUILDING - MD OFFICE VENTILATION,CORE_BOTTOM ZN DESIGN SPEC ZONE AIR DIST,PERIMETER_BOT_ZN_1 ZN,OFFICE WHOLEBUILDING - MD OFFICE VENTILATION,PERIMETER_BOT_ZN_1 ZN DESIGN SPEC ZONE AIR DIST,PERIMETER_BOT_ZN_2 ZN,OFFICE WHOLEBUILDING - MD OFFICE VENTILATION,PERIMETER_BOT_ZN_2 ZN DESIGN SPEC ZONE AIR DIST,PERIMETER_BOT_ZN_3 ZN,OFFICE WHOLEBUILDING - MD OFFICE VENTILATION,PERIMETER_BOT_ZN_3 ZN DESIGN SPEC ZONE AIR DIST,PERIMETER_BOT_ZN_4 ZN,OFFICE WHOLEBUILDING - MD OFFICE VENTILATION,PERIMETER_BOT_ZN_4 ZN DESIGN SPEC ZONE AIR DIST
 Controller:MechanicalVentilation,5 ZONE DOAS 1 MECHANICAL VENTILATION CONTROLLER,5 ZONE DOAS 1 OCC SCH,No,ZoneSum,1.00,5,CORE_MID ZN,OFFICE WHOLEBUILDING - MD OFFICE VENTILATION,CORE_MID ZN DESIGN SPEC ZONE AIR DIST,PERIMETER_MID_ZN_1 ZN,OFFICE WHOLEBUILDING - MD OFFICE VENTILATION,PERIMETER_MID_ZN_1 ZN DESIGN SPEC ZONE AIR DIST,PERIMETER_MID_ZN_2 ZN,OFFICE WHOLEBUILDING - MD OFFICE VENTILATION,PERIMETER_MID_ZN_2 ZN DESIGN SPEC ZONE AIR DIST,PERIMETER_MID_ZN_3 ZN,OFFICE WHOLEBUILDING - MD OFFICE VENTILATION,PERIMETER_MID_ZN_3 ZN DESIGN SPEC ZONE AIR DIST,PERIMETER_MID_ZN_4 ZN,OFFICE WHOLEBUILDING - MD OFFICE VENTILATION,PERIMETER_MID_ZN_4 ZN DESIGN SPEC ZONE AIR DIST
 Controller:MechanicalVentilation,5 ZONE DOAS 2 MECHANICAL VENTILATION CONTROLLER,5 ZONE DOAS 2 OCC SCH,No,ZoneSum,1.00,5,CORE_TOP ZN,OFFICE WHOLEBUILDING - MD OFFICE VENTILATION,CORE_TOP ZN DESIGN SPEC ZONE AIR DIST,PERIMETER_TOP_ZN_1 ZN,OFFICE WHOLEBUILDING - MD OFFICE VENTILATION,PERIMETER_TOP_ZN_1 ZN DESIGN SPEC ZONE AIR DIST,PERIMETER_TOP_ZN_2 ZN,OFFICE WHOLEBUILDING - MD OFFICE VENTILATION,PERIMETER_TOP_ZN_2 ZN DESIGN SPEC ZONE AIR DIST,PERIMETER_TOP_ZN_3 ZN,OFFICE WHOLEBUILDING - MD OFFICE VENTILATION,PERIMETER_TOP_ZN_3 ZN DESIGN SPEC ZONE AIR DIST,PERIMETER_TOP_ZN_4 ZN,OFFICE WHOLEBUILDING - MD OFFICE VENTILATION,PERIMETER_TOP_ZN_4 ZN DESIGN SPEC ZONE AIR DIST
 Component Sizing Information, Controller:OutdoorAir, 5 ZONE DOAS OUTDOOR AIR CONTROLLER, Maximum Outdoor Air Flow Rate [m3/s], 0.71710
 Component Sizing Information, Controller:OutdoorAir, 5 ZONE DOAS OUTDOOR AIR CONTROLLER, Minimum Outdoor Air Flow Rate [m3/s], 0.71710
 Component Sizing Information, HeatExchanger:AirToAir:SensibleAndLatent, 5 ZONE DOAS HEAT EXCHANGER, Design Size Nominal Supply Air Flow Rate [m3/s], 0.71710
 Component Sizing Information, Coil:Cooling:DX:TwoSpeed, 5 ZONE DOAS 2SPD DX CLG COIL, Design Size High Speed Rated Air Flow Rate [m3/s], 0.71710
 Component Sizing Information, Coil:Cooling:DX:TwoSpeed, 5 ZONE DOAS 2SPD DX CLG COIL, Design Size High Speed Gross Rated Total Cooling Capacity [W], 17807.36586
 Component Sizing Information, Coil:Cooling:DX:TwoSpeed, 5 ZONE DOAS 2SPD DX CLG COIL, Design Size High Speed Rated Sensible Heat Ratio, 0.69808
 Component Sizing Information, Coil:Cooling:DX:TwoSpeed, 5 ZONE DOAS 2SPD DX CLG COIL, Design Size Low Speed Rated Air Flow Rate [m3/s], 0.23901
 Component Sizing Information, Coil:Cooling:DX:TwoSpeed, 5 ZONE DOAS 2SPD DX CLG COIL, Design Size Low Speed Gross Rated Total Cooling Capacity [W], 5935.19504
 Component Sizing Information, Coil:Cooling:DX:TwoSpeed, 5 ZONE DOAS 2SPD DX CLG COIL, User-Specified Low Speed Gross Rated Sensible Heat Ratio, 0.69000
 Component Sizing Information, Coil:Heating:DX:SingleSpeed, 5 ZONE DOAS HTG COIL 61 CLG KBTU/HR 3.3COPH, Design Size Rated Air Flow Rate [m3/s], 0.71710
 Component Sizing Information, Coil:Heating:DX:SingleSpeed, 5 ZONE DOAS HTG COIL 61 CLG KBTU/HR 3.3COPH, Design Size Gross Rated Heating Capacity [W], 17807.36586
! <DX Heating Coil Standard Rating Information>, Component Type, Component Name, High Temperature Heating (net) Rating Capacity {W}, Low Temperature Heating (net) Rating Capacity {W}, HSPF {Btu/W-h}, Region Number
 DX Heating Coil Standard Rating Information, Coil:Heating:DX:SingleSpeed, 5 ZONE DOAS HTG COIL 61 CLG KBTU/HR 3.3COPH, 18346.0, 9062.3, 7.52, 4
 Component Sizing Information, Coil:Heating:Electric, 5 ZONE DOAS BACKUP HTG COIL, Design Size Nominal Capacity [W], 34834.55013
 Component Sizing Information, Fan:ConstantVolume, DOAS SUPPLY FAN, Design Size Maximum Flow Rate [m3/s], 0.71710
 Component Sizing Information, Fan:ConstantVolume, DOAS EXHAUST FAN 1, Design Size Maximum Flow Rate [m3/s], 0.71710
 Component Sizing Information, Controller:OutdoorAir, 5 ZONE DOAS 1 OUTDOOR AIR CONTROLLER, Maximum Outdoor Air Flow Rate [m3/s], 0.71710
 Component Sizing Information, Controller:OutdoorAir, 5 ZONE DOAS 1 OUTDOOR AIR CONTROLLER, Minimum Outdoor Air Flow Rate [m3/s], 0.71710
 Component Sizing Information, HeatExchanger:AirToAir:SensibleAndLatent, 5 ZONE DOAS 1 HEAT EXCHANGER, Design Size Nominal Supply Air Flow Rate [m3/s], 0.71710
 Component Sizing Information, Coil:Cooling:DX:TwoSpeed, 5 ZONE DOAS 1 2SPD DX CLG COIL, Design Size High Speed Rated Air Flow Rate [m3/s], 0.71710
 Component Sizing Information, Coil:Cooling:DX:TwoSpeed, 5 ZONE DOAS 1 2SPD DX CLG COIL, Design Size High Speed Gross Rated Total Cooling Capacity [W], 17807.36586
 Component Sizing Information, Coil:Cooling:DX:TwoSpeed, 5 ZONE DOAS 1 2SPD DX CLG COIL, Design Size High Speed Rated Sensible Heat Ratio, 0.69808
 Component Sizing Information, Coil:Cooling:DX:TwoSpeed, 5 ZONE DOAS 1 2SPD DX CLG COIL, Design Size Low Speed Rated Air Flow Rate [m3/s], 0.23901
 Component Sizing Information, Coil:Cooling:DX:TwoSpeed, 5 ZONE DOAS 1 2SPD DX CLG COIL, Design Size Low Speed Gross Rated Total Cooling Capacity [W], 5935.19504
 Component Sizing Information, Coil:Cooling:DX:TwoSpeed, 5 ZONE DOAS 1 2SPD DX CLG COIL, User-Specified Low Speed Gross Rated Sensible Heat Ratio, 0.69000
 Component Sizing Information, Coil:Heating:DX:SingleSpeed, 5 ZONE DOAS 1 HTG COIL 61 CLG KBTU/HR 3.3COPH, Design Size Rated Air Flow Rate [m3/s], 0.71710
 Component Sizing Information, Coil:Heating:DX:SingleSpeed, 5 ZONE DOAS 1 HTG COIL 61 CLG KBTU/HR 3.3COPH, Design Size Gross Rated Heating Capacity [W], 17807.36586
 DX Heating Coil Standard Rating Information, Coil:Heating:DX:SingleSpeed, 5 ZONE DOAS 1 HTG COIL 61 CLG KBTU/HR 3.3COPH, 18346.0, 9062.3, 7.52, 4
 Component Sizing Information, Coil:Heating:Electric, 5 ZONE DOAS 1 BACKUP HTG COIL, Design Size Nominal Capacity [W], 34834.55013
 Component Sizing Information, Fan:ConstantVolume, DOAS SUPPLY FAN 1, Design Size Maximum Flow Rate [m3/s], 0.71710
 Component Sizing Information, Fan:ConstantVolume, DOAS EXHAUST FAN 2, Design Size Maximum Flow Rate [m3/s], 0.71710
 Component Sizing Information, Controller:OutdoorAir, 5 ZONE DOAS 2 OUTDOOR AIR CONTROLLER, Maximum Outdoor Air Flow Rate [m3/s], 0.71710
 Component Sizing Information, Controller:OutdoorAir, 5 ZONE DOAS 2 OUTDOOR AIR CONTROLLER, Minimum Outdoor Air Flow Rate [m3/s], 0.71710
 Component Sizing Information, HeatExchanger:AirToAir:SensibleAndLatent, 5 ZONE DOAS 2 HEAT EXCHANGER, Design Size Nominal Supply Air Flow Rate [m3/s], 0.71710
 Component Sizing Information, Coil:Cooling:DX:TwoSpeed, 5 ZONE DOAS 2 2SPD DX CLG COIL, Design Size High Speed Rated Air Flow Rate [m3/s], 0.71710
 Component Sizing Information, Coil:Cooling:DX:TwoSpeed, 5 ZONE DOAS 2 2SPD DX CLG COIL, Design Size High Speed Gross Rated Total Cooling Capacity [W], 17807.36586
 Component Sizing Information, Coil:Cooling:DX:TwoSpeed, 5 ZONE DOAS 2 2SPD DX CLG COIL, Design Size High Speed Rated Sensible Heat Ratio, 0.69808
 Component Sizing Information, Coil:Cooling:DX:TwoSpeed, 5 ZONE DOAS 2 2SPD DX CLG COIL, Design Size Low Speed Rated Air Flow Rate [m3/s], 0.23901
 Component Sizing Information, Coil:Cooling:DX:TwoSpeed, 5 ZONE DOAS 2 2SPD DX CLG COIL, Design Size Low Speed Gross Rated Total Cooling Capacity [W], 5935.19504
 Component Sizing Information, Coil:Cooling:DX:TwoSpeed, 5 ZONE DOAS 2 2SPD DX CLG COIL, User-Specified Low Speed Gross Rated Sensible Heat Ratio, 0.69000
 Component Sizing Information, Coil:Heating:DX:SingleSpeed, 5 ZONE DOAS 2 HTG COIL 61 CLG KBTU/HR 3.3COPH, Design Size Rated Air Flow Rate [m3/s], 0.71710
 Component Sizing Information, Coil:Heating:DX:SingleSpeed, 5 ZONE DOAS 2 HTG COIL 61 CLG KBTU/HR 3.3COPH, Design Size Gross Rated Heating Capacity [W], 17807.36586
 DX Heating Coil Standard Rating Information, Coil:Heating:DX:SingleSpeed, 5 ZONE DOAS 2 HTG COIL 61 CLG KBTU/HR 3.3COPH, 18346.0, 9062.3, 7.52, 4
 Component Sizing Information, Coil:Heating:Electric, 5 ZONE DOAS 2 BACKUP HTG COIL, Design Size Nominal Capacity [W], 34834.55013
 Component Sizing Information, Fan:ConstantVolume, DOAS SUPPLY FAN 2, Design Size Maximum Flow Rate [m3/s], 0.71710
Water Heater Information,WaterHeater:Mixed,100GAL NATURAL GAS WATER HEATER - 100KBTU/HR 0.802 THERM EFF 0.808 THERM EFF,0.3785,29307.1,1.016,0.2254
 Component Sizing Information, PlantLoop, MAIN SERVICE WATER LOOP, Maximum Loop Flow Rate [m3/s], 5.36265E-005
 Component Sizing Information, PlantLoop, MAIN SERVICE WATER LOOP, Plant Loop Volume [m3], 6.43518E-003
 Component Sizing Information, Pump:ConstantSpeed, SERVICE WATER LOOP PUMP, Design Flow Rate [m3/s], 5.36265E-005
 Component Sizing Information, Pump:ConstantSpeed, SERVICE WATER LOOP PUMP, Design Power Consumption [W], 16.14994
 Component Sizing Information, WaterHeater:Mixed, 100GAL NATURAL GAS WATER HEATER - 100KBTU/HR 0.802 THERM EFF 0.808 THERM EFF, Use Side Design Flow Rate [m3/s], 5.36265E-005
! <Environment>,Environment Name,Environment Type, Start Date, End Date, Start DayOfWeek, Duration {#days}, Source:Start DayOfWeek,  Use Daylight Saving, Use Holidays, Apply Weekend Holiday Rule,  Use Rain Values, Use Snow Values
! <Environment:Special Days>, Special Day Name, Special Day Type, Source, Start Date, Duration {#days}
! <Environment:Daylight Saving>, Daylight Saving Indicator, Source, Start Date, End Date
! <Environment:WarmupDays>, NumberofWarmupDays
Environment,RUN PERIOD 1,WeatherFileRunPeriod,01/01/2006,12/31/2006,Sunday,365,Use RunPeriod Specified Day,No,No,No,Yes,Yes
Environment:Daylight Saving,Yes,InputFile,03/12,11/05
Environment:WarmupDays, 12
! <Tabular Report>,Style,Unit Conversion
Tabular Report,HTML,None
! <Warmup Convergence Information>,Zone Name,Environment Type/Name,Average Warmup Temperature Difference {deltaC},Std Dev Warmup Temperature Difference {deltaC},Max Temperature Pass/Fail Convergence,Min Temperature Pass/Fail Convergence,Average Warmup Load Difference {W},Std Dev Warmup Load Difference {W},Heating Load Pass/Fail Convergence,Cooling Load Pass/Fail Convergence
 Warmup Convergence Information,CORE_BOTTOM ZN,RunPeriod: RUN PERIOD 1,6.8515940659E-003,6.3167299417E-003,Pass,Pass,0.0000000000,0.0000000000,Pass,Pass
 Warmup Convergence Information,CORE_MID ZN,RunPeriod: RUN PERIOD 1,6.2175026587E-003,5.8953313062E-003,Pass,Pass,0.0000000000,0.0000000000,Pass,Pass
 Warmup Convergence Information,CORE_TOP ZN,RunPeriod: RUN PERIOD 1,1.0353997215E-003,2.8649073173E-003,Pass,Pass,6.3080017878E-002,0.1956197814,Pass,Pass
 Warmup Convergence Information,FIRSTFLOOR_PLENUM ZN,RunPeriod: RUN PERIOD 1,1.2299233533E-002,7.6228942767E-003,Pass,Pass,0.0000000000,0.0000000000,Pass,Pass
 Warmup Convergence Information,MIDFLOOR_PLENUM ZN,RunPeriod: RUN PERIOD 1,1.3169876685E-002,9.0103688704E-003,Pass,Pass,0.0000000000,0.0000000000,Pass,Pass
 Warmup Convergence Information,PERIMETER_BOT_ZN_1 ZN,RunPeriod: RUN PERIOD 1,9.8507021354E-002,0.1137497462,Pass,Pass,8.8265208418E-003,6.3400567409E-002,Pass,Pass
 Warmup Convergence Information,PERIMETER_BOT_ZN_2 ZN,RunPeriod: RUN PERIOD 1,5.1638457410E-002,8.6535308038E-002,Pass,Pass,2.2057405221E-002,7.3388806367E-002,Pass,Pass
 Warmup Convergence Information,PERIMETER_BOT_ZN_3 ZN,RunPeriod: RUN PERIOD 1,2.1907002031E-002,2.5555170309E-002,Pass,Pass,4.2267630458E-002,0.2222829039,Pass,Pass
 Warmup Convergence Information,PERIMETER_BOT_ZN_4 ZN,RunPeriod: RUN PERIOD 1,2.9679813406E-002,3.0414525346E-002,Pass,Pass,5.9968305266E-002,0.3470529968,Pass,Pass
 Warmup Convergence Information,PERIMETER_MID_ZN_1 ZN,RunPeriod: RUN PERIOD 1,6.4575438567E-002,9.8828364847E-002,Pass,Pass,7.3337479450E-002,0.2224116670,Pass,Pass
 Warmup Convergence Information,PERIMETER_MID_ZN_2 ZN,RunPeriod: RUN PERIOD 1,2.0114472863E-002,5.3369311408E-002,Pass,Pass,6.1094273032E-002,0.1822344789,Pass,Pass
 Warmup Convergence Information,PERIMETER_MID_ZN_3 ZN,RunPeriod: RUN PERIOD 1,4.3543824176E-008,1.8576670777E-007,Pass,Pass,2.7342535406E-002,2.7781535790E-002,Pass,Pass
 Warmup Convergence Information,PERIMETER_MID_ZN_4 ZN,RunPeriod: RUN PERIOD 1,4.8296766894E-008,2.0959066829E-007,Pass,Pass,7.5006932954E-002,0.2203584178,Pass,Pass
 Warmup Convergence Information,PERIMETER_TOP_ZN_1 ZN,RunPeriod: RUN PERIOD 1,4.5385485428E-002,8.5810652943E-002,Pass,Pass,4.6575376332E-002,0.1261802718,Pass,Pass
 Warmup Convergence Information,PERIMETER_TOP_ZN_2 ZN,RunPeriod: RUN PERIOD 1,2.0773792541E-003,1.0817123304E-002,Pass,Pass,5.8283943208E-002,0.1553119501,Pass,Pass
 Warmup Convergence Information,PERIMETER_TOP_ZN_3 ZN,RunPeriod: RUN PERIOD 1,7.7255920303E-008,3.3405301376E-007,Pass,Pass,1.6778341743E-002,1.5965226608E-002,Pass,Pass
 Warmup Convergence Information,PERIMETER_TOP_ZN_4 ZN,RunPeriod: RUN PERIOD 1,8.2952520630E-008,3.6298587057E-007,Pass,Pass,2.3147833974E-002,2.0285607260E-002,Pass,Pass
 Warmup Convergence Information,TOPFLOOR_PLENUM ZN,RunPeriod: RUN PERIOD 1,3.7336255231E-002,3.3468236397E-002,Pass,Pass,0.0000000000,0.0000000000,Pass,Pass
! <Program Control Information:Threads/Parallel Sims>, Threading Supported,Maximum Number of Threads, Env Set Threads (OMP_NUM_THREADS), EP Env Set Threads (EP_OMP_NUM_THREADS), IDF Set Threads, Number of Threads Used (Interior Radiant Exchange), Number Nominal Surfaces, Number Parallel Sims
Program Control:Threads/Parallel Sims, No,1, N/A, N/A, N/A, N/A, N/A, N/A
End of Data
