Program Version,EnergyPlus, Version 9.1.0-08d2e308bb, YMD=2019.04.09 23:15
! This file shows details about the branches, nodes, and other
! elements of the flow connections.
! This file is intended for use in "debugging" potential problems
! that may also be detected by the program, but may be more easily
! identified by "eye".
! This file is also intended to support software which draws a
! schematic diagram of the HVAC system.
! ===============================================================
! #Nodes,<Number of Unique Nodes>
 #Nodes,486
! <Node>,<NodeNumber>,<Node Name>,<Node Fluid Type>,<# Times Node Referenced After Definition>
 Node,1,BATH_ZN_1_FLR_1 ZN AIR TERMINAL OUTLET AIR NODE,Air,3
 Node,2,BATH_ZN_1_FLR_1 ZN FCU OUTLET AIR NODE,Air,3
 Node,3,BATH_ZN_1_FLR_1 ZN EXHAUST FAN INLET AIR NODE,Air,2
 Node,4,BATH_ZN_1_FLR_1 ZN FCU INLET AIR NODE,Air,3
 Node,5,BATH_ZN_1_FLR_1 ZN RETURN AIR NODE,Air,2
 Node,6,CAFETERIA_ZN_1_FLR_1 ZN AIR TERMINAL OUTLET AIR NODE,Air,3
 Node,7,CAFETERIA_ZN_1_FLR_1 ZN FCU OUTLET AIR NODE,Air,3
 Node,8,CAFETERIA_ZN_1_FLR_1 ZN FCU INLET AIR NODE,Air,3
 Node,9,CAFETERIA_ZN_1_FLR_1 ZN RETURN AIR NODE,Air,2
 Node,10,COMPUTER_CLASS_ZN_1_FLR_1 ZN AIR TERMINAL OUTLET AIR NODE,Air,3
 Node,11,COMPUTER_CLASS_ZN_1_FLR_1 ZN FCU OUTLET AIR NODE,Air,3
 Node,12,COMPUTER_CLASS_ZN_1_FLR_1 ZN FCU INLET AIR NODE,Air,3
 Node,13,COMPUTER_CLASS_ZN_1_FLR_1 ZN RETURN AIR NODE,Air,2
 Node,14,CORNER_CLASS_1_POD_1_ZN_1_FLR_1 ZN AIR TERMINAL OUTLET AIR NODE,Air,3
 Node,15,CORNER_CLASS_1_POD_1_ZN_1_FLR_1 ZN FCU OUTLET AIR NODE,Air,3
 Node,16,CORNER_CLASS_1_POD_1_ZN_1_FLR_1 ZN FCU INLET AIR NODE,Air,3
 Node,17,CORNER_CLASS_1_POD_1_ZN_1_FLR_1 ZN RETURN AIR NODE,Air,2
 Node,18,CORNER_CLASS_1_POD_2_ZN_1_FLR_1 ZN AIR TERMINAL OUTLET AIR NODE,Air,3
 Node,19,CORNER_CLASS_1_POD_2_ZN_1_FLR_1 ZN FCU OUTLET AIR NODE,Air,3
 Node,20,CORNER_CLASS_1_POD_2_ZN_1_FLR_1 ZN FCU INLET AIR NODE,Air,3
 Node,21,CORNER_CLASS_1_POD_2_ZN_1_FLR_1 ZN RETURN AIR NODE,Air,2
 Node,22,CORNER_CLASS_1_POD_3_ZN_1_FLR_1 ZN AIR TERMINAL OUTLET AIR NODE,Air,3
 Node,23,CORNER_CLASS_1_POD_3_ZN_1_FLR_1 ZN FCU OUTLET AIR NODE,Air,3
 Node,24,CORNER_CLASS_1_POD_3_ZN_1_FLR_1 ZN FCU INLET AIR NODE,Air,3
 Node,25,CORNER_CLASS_1_POD_3_ZN_1_FLR_1 ZN RETURN AIR NODE,Air,2
 Node,26,CORNER_CLASS_2_POD_1_ZN_1_FLR_1 ZN AIR TERMINAL OUTLET AIR NODE,Air,3
 Node,27,CORNER_CLASS_2_POD_1_ZN_1_FLR_1 ZN FCU OUTLET AIR NODE,Air,3
 Node,28,CORNER_CLASS_2_POD_1_ZN_1_FLR_1 ZN FCU INLET AIR NODE,Air,3
 Node,29,CORNER_CLASS_2_POD_1_ZN_1_FLR_1 ZN RETURN AIR NODE,Air,2
 Node,30,CORNER_CLASS_2_POD_2_ZN_1_FLR_1 ZN AIR TERMINAL OUTLET AIR NODE,Air,3
 Node,31,CORNER_CLASS_2_POD_2_ZN_1_FLR_1 ZN FCU OUTLET AIR NODE,Air,3
 Node,32,CORNER_CLASS_2_POD_2_ZN_1_FLR_1 ZN FCU INLET AIR NODE,Air,3
 Node,33,CORNER_CLASS_2_POD_2_ZN_1_FLR_1 ZN RETURN AIR NODE,Air,2
 Node,34,CORNER_CLASS_2_POD_3_ZN_1_FLR_1 ZN AIR TERMINAL OUTLET AIR NODE,Air,3
 Node,35,CORNER_CLASS_2_POD_3_ZN_1_FLR_1 ZN FCU OUTLET AIR NODE,Air,3
 Node,36,CORNER_CLASS_2_POD_3_ZN_1_FLR_1 ZN FCU INLET AIR NODE,Air,3
 Node,37,CORNER_CLASS_2_POD_3_ZN_1_FLR_1 ZN RETURN AIR NODE,Air,2
 Node,38,CORRIDOR_POD_1_ZN_1_FLR_1 ZN AIR TERMINAL OUTLET AIR NODE,Air,3
 Node,39,CORRIDOR_POD_1_ZN_1_FLR_1 ZN FCU OUTLET AIR NODE,Air,3
 Node,40,CORRIDOR_POD_1_ZN_1_FLR_1 ZN FCU INLET AIR NODE,Air,3
 Node,41,CORRIDOR_POD_1_ZN_1_FLR_1 ZN RETURN AIR NODE,Air,2
 Node,42,CORRIDOR_POD_2_ZN_1_FLR_1 ZN AIR TERMINAL OUTLET AIR NODE,Air,3
 Node,43,CORRIDOR_POD_2_ZN_1_FLR_1 ZN FCU OUTLET AIR NODE,Air,3
 Node,44,CORRIDOR_POD_2_ZN_1_FLR_1 ZN FCU INLET AIR NODE,Air,3
 Node,45,CORRIDOR_POD_2_ZN_1_FLR_1 ZN RETURN AIR NODE,Air,2
 Node,46,CORRIDOR_POD_3_ZN_1_FLR_1 ZN AIR TERMINAL OUTLET AIR NODE,Air,3
 Node,47,CORRIDOR_POD_3_ZN_1_FLR_1 ZN FCU OUTLET AIR NODE,Air,3
 Node,48,CORRIDOR_POD_3_ZN_1_FLR_1 ZN FCU INLET AIR NODE,Air,3
 Node,49,CORRIDOR_POD_3_ZN_1_FLR_1 ZN RETURN AIR NODE,Air,2
 Node,50,GYM_ZN_1_FLR_1 ZN AIR TERMINAL OUTLET AIR NODE,Air,3
 Node,51,GYM_ZN_1_FLR_1 ZN FCU OUTLET AIR NODE,Air,3
 Node,52,GYM_ZN_1_FLR_1 ZN FCU INLET AIR NODE,Air,3
 Node,53,GYM_ZN_1_FLR_1 ZN RETURN AIR NODE,Air,2
 Node,54,KITCHEN_ZN_1_FLR_1 ZN AIR TERMINAL OUTLET AIR NODE,Air,3
 Node,55,KITCHEN_ZN_1_FLR_1 ZN FCU OUTLET AIR NODE,Air,3
 Node,56,KITCHEN_ZN_1_FLR_1 ZN EXHAUST FAN INLET AIR NODE,Air,2
 Node,57,KITCHEN_ZN_1_FLR_1 ZN FCU INLET AIR NODE,Air,3
 Node,58,KITCHEN_ZN_1_FLR_1 ZN RETURN AIR NODE,Air,2
 Node,59,LIBRARY_MEDIA_CENTER_ZN_1_FLR_1 ZN AIR TERMINAL OUTLET AIR NODE,Air,3
 Node,60,LIBRARY_MEDIA_CENTER_ZN_1_FLR_1 ZN FCU OUTLET AIR NODE,Air,3
 Node,61,LIBRARY_MEDIA_CENTER_ZN_1_FLR_1 ZN FCU INLET AIR NODE,Air,3
 Node,62,LIBRARY_MEDIA_CENTER_ZN_1_FLR_1 ZN RETURN AIR NODE,Air,2
 Node,63,LOBBY_ZN_1_FLR_1 ZN AIR TERMINAL OUTLET AIR NODE,Air,3
 Node,64,LOBBY_ZN_1_FLR_1 ZN FCU OUTLET AIR NODE,Air,3
 Node,65,LOBBY_ZN_1_FLR_1 ZN FCU INLET AIR NODE,Air,3
 Node,66,LOBBY_ZN_1_FLR_1 ZN RETURN AIR NODE,Air,2
 Node,67,MAIN_CORRIDOR_ZN_1_FLR_1 ZN AIR TERMINAL OUTLET AIR NODE,Air,3
 Node,68,MAIN_CORRIDOR_ZN_1_FLR_1 ZN FCU OUTLET AIR NODE,Air,3
 Node,69,MAIN_CORRIDOR_ZN_1_FLR_1 ZN FCU INLET AIR NODE,Air,3
 Node,70,MAIN_CORRIDOR_ZN_1_FLR_1 ZN RETURN AIR NODE,Air,2
 Node,71,MECH_ZN_1_FLR_1 ZN AIR TERMINAL OUTLET AIR NODE,Air,3
 Node,72,MECH_ZN_1_FLR_1 ZN FCU OUTLET AIR NODE,Air,3
 Node,73,MECH_ZN_1_FLR_1 ZN FCU INLET AIR NODE,Air,3
 Node,74,MECH_ZN_1_FLR_1 ZN RETURN AIR NODE,Air,2
 Node,75,MULT_CLASS_1_POD_1_ZN_1_FLR_1 ZN AIR TERMINAL OUTLET AIR NODE,Air,3
 Node,76,MULT_CLASS_1_POD_1_ZN_1_FLR_1 ZN FCU OUTLET AIR NODE,Air,3
 Node,77,MULT_CLASS_1_POD_1_ZN_1_FLR_1 ZN FCU INLET AIR NODE,Air,3
 Node,78,MULT_CLASS_1_POD_1_ZN_1_FLR_1 ZN RETURN AIR NODE,Air,2
 Node,79,MULT_CLASS_1_POD_2_ZN_1_FLR_1 ZN AIR TERMINAL OUTLET AIR NODE,Air,3
 Node,80,MULT_CLASS_1_POD_2_ZN_1_FLR_1 ZN FCU OUTLET AIR NODE,Air,3
 Node,81,MULT_CLASS_1_POD_2_ZN_1_FLR_1 ZN FCU INLET AIR NODE,Air,3
 Node,82,MULT_CLASS_1_POD_2_ZN_1_FLR_1 ZN RETURN AIR NODE,Air,2
 Node,83,MULT_CLASS_1_POD_3_ZN_1_FLR_1 ZN AIR TERMINAL OUTLET AIR NODE,Air,3
 Node,84,MULT_CLASS_1_POD_3_ZN_1_FLR_1 ZN FCU OUTLET AIR NODE,Air,3
 Node,85,MULT_CLASS_1_POD_3_ZN_1_FLR_1 ZN FCU INLET AIR NODE,Air,3
 Node,86,MULT_CLASS_1_POD_3_ZN_1_FLR_1 ZN RETURN AIR NODE,Air,2
 Node,87,MULT_CLASS_2_POD_1_ZN_1_FLR_1 ZN AIR TERMINAL OUTLET AIR NODE,Air,3
 Node,88,MULT_CLASS_2_POD_1_ZN_1_FLR_1 ZN FCU OUTLET AIR NODE,Air,3
 Node,89,MULT_CLASS_2_POD_1_ZN_1_FLR_1 ZN FCU INLET AIR NODE,Air,3
 Node,90,MULT_CLASS_2_POD_1_ZN_1_FLR_1 ZN RETURN AIR NODE,Air,2
 Node,91,MULT_CLASS_2_POD_2_ZN_1_FLR_1 ZN AIR TERMINAL OUTLET AIR NODE,Air,3
 Node,92,MULT_CLASS_2_POD_2_ZN_1_FLR_1 ZN FCU OUTLET AIR NODE,Air,3
 Node,93,MULT_CLASS_2_POD_2_ZN_1_FLR_1 ZN FCU INLET AIR NODE,Air,3
 Node,94,MULT_CLASS_2_POD_2_ZN_1_FLR_1 ZN RETURN AIR NODE,Air,2
 Node,95,MULT_CLASS_2_POD_3_ZN_1_FLR_1 ZN AIR TERMINAL OUTLET AIR NODE,Air,3
 Node,96,MULT_CLASS_2_POD_3_ZN_1_FLR_1 ZN FCU OUTLET AIR NODE,Air,3
 Node,97,MULT_CLASS_2_POD_3_ZN_1_FLR_1 ZN FCU INLET AIR NODE,Air,3
 Node,98,MULT_CLASS_2_POD_3_ZN_1_FLR_1 ZN RETURN AIR NODE,Air,2
 Node,99,OFFICES_ZN_1_FLR_1 ZN AIR TERMINAL OUTLET AIR NODE,Air,3
 Node,100,OFFICES_ZN_1_FLR_1 ZN FCU OUTLET AIR NODE,Air,3
 Node,101,OFFICES_ZN_1_FLR_1 ZN FCU INLET AIR NODE,Air,3
 Node,102,OFFICES_ZN_1_FLR_1 ZN RETURN AIR NODE,Air,2
 Node,103,25 ZONE DOAS SUPPLY OUTLET NODE,Air,14
 Node,104,25 ZONE DOAS DEMAND INLET NODE,Air,3
 Node,105,25 ZONE DOAS SUPPLY INLET NODE,Air,2
 Node,106,DOAS EXHAUST FAN OUTLET AIR NODE,Air,5
 Node,107,25 ZONE DOAS MIXED AIR NODE,Air,5
 Node,108,25 ZONE DOAS CLG COIL OUTLET AIR NODE,Air,5
 Node,109,25 ZONE DOAS HTG COIL OUTLET AIR NODE,Air,10
 Node,110,CHILLED WATER LOOP SUPPLY INLET NODE,Water,2
 Node,111,CHILLED WATER LOOP PRIMARY PUMP OUTLET WATER NODE,Water,1
 Node,112,NREL ZNE READY 2017 WATERCOOLED  ROTARY SCREW CHILLER 0 SUPPLY INLET WATER NODE,Water,1
 Node,113,NREL ZNE READY 2017 WATERCOOLED  ROTARY SCREW CHILLER 0 SUPPLY OUTLET WATER NODE,Water,1
 Node,114,CHILLED WATER LOOP CHILLER BYPASS INLET WATER NODE,Water,1
 Node,115,CHILLED WATER LOOP CHILLER BYPASS OUTLET WATER NODE,Water,1
 Node,116,CHILLED WATER LOOP SUPPLY OUTLET INLET WATER NODE,Water,1
 Node,117,CHILLED WATER LOOP SUPPLY OUTLET NODE,Water,4
 Node,118,CHILLED WATER LOOP DEMAND INLET NODE,Water,2
 Node,119,CHILLED WATER LOOP SECONDARY PUMP INLET WATER NODE,Water,3
 Node,120,CHILLED WATER LOOP SECONDARY PUMP OUTLET WATER NODE,Water,1
 Node,121,CHILLED WATER LOOP COIL BYPASS INLET WATER NODE,Water,1
 Node,122,CHILLED WATER LOOP COIL BYPASS OUTLET WATER NODE,Water,1
 Node,123,25 ZONE DOAS CLG COIL INLET WATER NODE,Water,2
 Node,124,25 ZONE DOAS CLG COIL OUTLET WATER NODE,Water,1
 Node,125,OFFICES_ZN_1_FLR_1 ZN FCU COOLING COIL INLET WATER NODE,Water,1
 Node,126,OFFICES_ZN_1_FLR_1 ZN FCU COOLING COIL OUTLET WATER NODE,Water,1
 Node,127,MULT_CLASS_2_POD_2_ZN_1_FLR_1 ZN FCU COOLING COIL INLET WATER NODE,Water,1
 Node,128,MULT_CLASS_2_POD_2_ZN_1_FLR_1 ZN FCU COOLING COIL OUTLET WATER NODE,Water,1
 Node,129,MULT_CLASS_2_POD_1_ZN_1_FLR_1 ZN FCU COOLING COIL INLET WATER NODE,Water,1
 Node,130,MULT_CLASS_2_POD_1_ZN_1_FLR_1 ZN FCU COOLING COIL OUTLET WATER NODE,Water,1
 Node,131,MULT_CLASS_2_POD_3_ZN_1_FLR_1 ZN FCU COOLING COIL INLET WATER NODE,Water,1
 Node,132,MULT_CLASS_2_POD_3_ZN_1_FLR_1 ZN FCU COOLING COIL OUTLET WATER NODE,Water,1
 Node,133,MULT_CLASS_1_POD_1_ZN_1_FLR_1 ZN FCU COOLING COIL INLET WATER NODE,Water,1
 Node,134,MULT_CLASS_1_POD_1_ZN_1_FLR_1 ZN FCU COOLING COIL OUTLET WATER NODE,Water,1
 Node,135,BATH_ZN_1_FLR_1 ZN FCU COOLING COIL INLET WATER NODE,Water,1
 Node,136,BATH_ZN_1_FLR_1 ZN FCU COOLING COIL OUTLET WATER NODE,Water,1
 Node,137,CORRIDOR_POD_1_ZN_1_FLR_1 ZN FCU COOLING COIL INLET WATER NODE,Water,1
 Node,138,CORRIDOR_POD_1_ZN_1_FLR_1 ZN FCU COOLING COIL OUTLET WATER NODE,Water,1
 Node,139,LIBRARY_MEDIA_CENTER_ZN_1_FLR_1 ZN FCU COOLING COIL INLET WATER NODE,Water,1
 Node,140,LIBRARY_MEDIA_CENTER_ZN_1_FLR_1 ZN FCU COOLING COIL OUTLET WATER NODE,Water,1
 Node,141,KITCHEN_ZN_1_FLR_1 ZN FCU COOLING COIL INLET WATER NODE,Water,1
 Node,142,KITCHEN_ZN_1_FLR_1 ZN FCU COOLING COIL OUTLET WATER NODE,Water,1
 Node,143,LOBBY_ZN_1_FLR_1 ZN FCU COOLING COIL INLET WATER NODE,Water,1
 Node,144,LOBBY_ZN_1_FLR_1 ZN FCU COOLING COIL OUTLET WATER NODE,Water,1
 Node,145,COMPUTER_CLASS_ZN_1_FLR_1 ZN FCU COOLING COIL INLET WATER NODE,Water,1
 Node,146,COMPUTER_CLASS_ZN_1_FLR_1 ZN FCU COOLING COIL OUTLET WATER NODE,Water,1
 Node,147,CORRIDOR_POD_3_ZN_1_FLR_1 ZN FCU COOLING COIL INLET WATER NODE,Water,1
 Node,148,CORRIDOR_POD_3_ZN_1_FLR_1 ZN FCU COOLING COIL OUTLET WATER NODE,Water,1
 Node,149,MECH_ZN_1_FLR_1 ZN FCU COOLING COIL INLET WATER NODE,Water,1
 Node,150,MECH_ZN_1_FLR_1 ZN FCU COOLING COIL OUTLET WATER NODE,Water,1
 Node,151,CORNER_CLASS_1_POD_3_ZN_1_FLR_1 ZN FCU COOLING COIL INLET WATER NODE,Water,1
 Node,152,CORNER_CLASS_1_POD_3_ZN_1_FLR_1 ZN FCU COOLING COIL OUTLET WATER NODE,Water,1
 Node,153,CAFETERIA_ZN_1_FLR_1 ZN FCU COOLING COIL INLET WATER NODE,Water,1
 Node,154,CAFETERIA_ZN_1_FLR_1 ZN FCU COOLING COIL OUTLET WATER NODE,Water,1
 Node,155,CORRIDOR_POD_2_ZN_1_FLR_1 ZN FCU COOLING COIL INLET WATER NODE,Water,1
 Node,156,CORRIDOR_POD_2_ZN_1_FLR_1 ZN FCU COOLING COIL OUTLET WATER NODE,Water,1
 Node,157,CORNER_CLASS_2_POD_3_ZN_1_FLR_1 ZN FCU COOLING COIL INLET WATER NODE,Water,1
 Node,158,CORNER_CLASS_2_POD_3_ZN_1_FLR_1 ZN FCU COOLING COIL OUTLET WATER NODE,Water,1
 Node,159,CORNER_CLASS_2_POD_2_ZN_1_FLR_1 ZN FCU COOLING COIL INLET WATER NODE,Water,1
 Node,160,CORNER_CLASS_2_POD_2_ZN_1_FLR_1 ZN FCU COOLING COIL OUTLET WATER NODE,Water,1
 Node,161,CORNER_CLASS_2_POD_1_ZN_1_FLR_1 ZN FCU COOLING COIL INLET WATER NODE,Water,1
 Node,162,CORNER_CLASS_2_POD_1_ZN_1_FLR_1 ZN FCU COOLING COIL OUTLET WATER NODE,Water,1
 Node,163,GYM_ZN_1_FLR_1 ZN FCU COOLING COIL INLET WATER NODE,Water,1
 Node,164,GYM_ZN_1_FLR_1 ZN FCU COOLING COIL OUTLET WATER NODE,Water,1
 Node,165,CORNER_CLASS_1_POD_1_ZN_1_FLR_1 ZN FCU COOLING COIL INLET WATER NODE,Water,1
 Node,166,CORNER_CLASS_1_POD_1_ZN_1_FLR_1 ZN FCU COOLING COIL OUTLET WATER NODE,Water,1
 Node,167,MULT_CLASS_1_POD_2_ZN_1_FLR_1 ZN FCU COOLING COIL INLET WATER NODE,Water,1
 Node,168,MULT_CLASS_1_POD_2_ZN_1_FLR_1 ZN FCU COOLING COIL OUTLET WATER NODE,Water,1
 Node,169,MULT_CLASS_1_POD_3_ZN_1_FLR_1 ZN FCU COOLING COIL INLET WATER NODE,Water,1
 Node,170,MULT_CLASS_1_POD_3_ZN_1_FLR_1 ZN FCU COOLING COIL OUTLET WATER NODE,Water,1
 Node,171,MAIN_CORRIDOR_ZN_1_FLR_1 ZN FCU COOLING COIL INLET WATER NODE,Water,1
 Node,172,MAIN_CORRIDOR_ZN_1_FLR_1 ZN FCU COOLING COIL OUTLET WATER NODE,Water,1
 Node,173,CORNER_CLASS_1_POD_2_ZN_1_FLR_1 ZN FCU COOLING COIL INLET WATER NODE,Water,1
 Node,174,CORNER_CLASS_1_POD_2_ZN_1_FLR_1 ZN FCU COOLING COIL OUTLET WATER NODE,Water,1
 Node,175,CHILLED WATER LOOP DEMAND BYPASS PIPE INLET NODE,Water,1
 Node,176,CHILLED WATER LOOP DEMAND BYPASS PIPE OUTLET NODE,Water,1
 Node,177,CHILLED WATER LOOP DEMAND OUTLET INLET WATER NODE,Water,1
 Node,178,CHILLED WATER LOOP DEMAND OUTLET NODE,Water,2
 Node,179,CONDENSER WATER LOOP SUPPLY INLET NODE,Water,2
 Node,180,CONDENSER WATER LOOP CONSTANT PUMP OUTLET WATER NODE,Water,1
 Node,181,PROPELLER OR AXIAL VARIABLE SPEED FAN OPEN COOLING TOWER INLET WATER NODE,Water,1
 Node,182,PROPELLER OR AXIAL VARIABLE SPEED FAN OPEN COOLING TOWER OUTLET WATER NODE,Water,1
 Node,183,CONDENSER WATER LOOP COOLING TOWER BYPASS INLET WATER NODE,Water,1
 Node,184,CONDENSER WATER LOOP COOLING TOWER BYPASS OUTLET WATER NODE,Water,1
 Node,185,CONDENSER WATER LOOP SUPPLY OUTLET INLET WATER NODE,Water,1
 Node,186,CONDENSER WATER LOOP SUPPLY OUTLET NODE,Water,4
 Node,187,CONDENSER WATER LOOP DEMAND INLET NODE,Water,2
 Node,188,CONDENSER WATER LOOP DEMAND INLET OUTLET WATER NODE,Water,1
 Node,189,CONDENSER WATER LOOP CHILLER BYPASS INLET WATER NODE,Water,1
 Node,190,CONDENSER WATER LOOP CHILLER BYPASS OUTLET WATER NODE,Water,1
 Node,191,NREL ZNE READY 2017 WATERCOOLED  ROTARY SCREW CHILLER 0 DEMAND INLET WATER NODE,Water,1
 Node,192,NREL ZNE READY 2017 WATERCOOLED  ROTARY SCREW CHILLER 0 DEMAND OUTLET WATER NODE,Water,1
 Node,193,CONDENSER WATER LOOP DEMAND BYPASS PIPE INLET NODE,Water,1
 Node,194,CONDENSER WATER LOOP DEMAND BYPASS PIPE OUTLET NODE,Water,1
 Node,195,CONDENSER WATER LOOP DEMAND OUTLET INLET WATER NODE,Water,1
 Node,196,CONDENSER WATER LOOP DEMAND OUTLET NODE,Water,2
 Node,197,HOT WATER LOOP SUPPLY INLET NODE,Water,2
 Node,198,HOT WATER LOOP PUMP OUTLET WATER NODE,Water,1
 Node,199,BOILER INLET WATER NODE,Water,1
 Node,200,BOILER OUTLET WATER NODE,Water,1
 Node,201,HOT WATER LOOP SUPPLY EQUIPMENT BYPASS INLET WATER NODE,Water,1
 Node,202,HOT WATER LOOP SUPPLY EQUIPMENT BYPASS OUTLET WATER NODE,Water,1
 Node,203,HOT WATER LOOP SUPPLY OUTLET INLET WATER NODE,Water,1
 Node,204,HOT WATER LOOP SUPPLY OUTLET NODE,Water,4
 Node,205,HOT WATER LOOP DEMAND INLET NODE,Water,2
 Node,206,HOT WATER LOOP DEMAND INLET OUTLET WATER NODE,Water,1
 Node,207,HOT WATER LOOP COIL BYPASS INLET WATER NODE,Water,1
 Node,208,HOT WATER LOOP COIL BYPASS OUTLET WATER NODE,Water,1
 Node,209,25 ZONE DOAS HTG COIL INLET WATER NODE,Water,2
 Node,210,25 ZONE DOAS HTG COIL OUTLET WATER NODE,Water,1
 Node,211,OFFICES_ZN_1_FLR_1 ZN FCU HEATING COIL INLET WATER NODE,Water,1
 Node,212,OFFICES_ZN_1_FLR_1 ZN FCU HEATING COIL OUTLET WATER NODE,Water,1
 Node,213,MULT_CLASS_2_POD_2_ZN_1_FLR_1 ZN FCU HEATING COIL INLET WATER NODE,Water,1
 Node,214,MULT_CLASS_2_POD_2_ZN_1_FLR_1 ZN FCU HEATING COIL OUTLET WATER NODE,Water,1
 Node,215,MULT_CLASS_2_POD_1_ZN_1_FLR_1 ZN FCU HEATING COIL INLET WATER NODE,Water,1
 Node,216,MULT_CLASS_2_POD_1_ZN_1_FLR_1 ZN FCU HEATING COIL OUTLET WATER NODE,Water,1
 Node,217,MULT_CLASS_2_POD_3_ZN_1_FLR_1 ZN FCU HEATING COIL INLET WATER NODE,Water,1
 Node,218,MULT_CLASS_2_POD_3_ZN_1_FLR_1 ZN FCU HEATING COIL OUTLET WATER NODE,Water,1
 Node,219,MULT_CLASS_1_POD_1_ZN_1_FLR_1 ZN FCU HEATING COIL INLET WATER NODE,Water,1
 Node,220,MULT_CLASS_1_POD_1_ZN_1_FLR_1 ZN FCU HEATING COIL OUTLET WATER NODE,Water,1
 Node,221,BATH_ZN_1_FLR_1 ZN FCU HEATING COIL INLET WATER NODE,Water,1
 Node,222,BATH_ZN_1_FLR_1 ZN FCU HEATING COIL OUTLET WATER NODE,Water,1
 Node,223,CORRIDOR_POD_1_ZN_1_FLR_1 ZN FCU HEATING COIL INLET WATER NODE,Water,1
 Node,224,CORRIDOR_POD_1_ZN_1_FLR_1 ZN FCU HEATING COIL OUTLET WATER NODE,Water,1
 Node,225,LIBRARY_MEDIA_CENTER_ZN_1_FLR_1 ZN FCU HEATING COIL INLET WATER NODE,Water,1
 Node,226,LIBRARY_MEDIA_CENTER_ZN_1_FLR_1 ZN FCU HEATING COIL OUTLET WATER NODE,Water,1
 Node,227,KITCHEN_ZN_1_FLR_1 ZN FCU HEATING COIL INLET WATER NODE,Water,1
 Node,228,KITCHEN_ZN_1_FLR_1 ZN FCU HEATING COIL OUTLET WATER NODE,Water,1
 Node,229,LOBBY_ZN_1_FLR_1 ZN FCU HEATING COIL INLET WATER NODE,Water,1
 Node,230,LOBBY_ZN_1_FLR_1 ZN FCU HEATING COIL OUTLET WATER NODE,Water,1
 Node,231,COMPUTER_CLASS_ZN_1_FLR_1 ZN FCU HEATING COIL INLET WATER NODE,Water,1
 Node,232,COMPUTER_CLASS_ZN_1_FLR_1 ZN FCU HEATING COIL OUTLET WATER NODE,Water,1
 Node,233,CORRIDOR_POD_3_ZN_1_FLR_1 ZN FCU HEATING COIL INLET WATER NODE,Water,1
 Node,234,CORRIDOR_POD_3_ZN_1_FLR_1 ZN FCU HEATING COIL OUTLET WATER NODE,Water,1
 Node,235,MECH_ZN_1_FLR_1 ZN FCU HEATING COIL INLET WATER NODE,Water,1
 Node,236,MECH_ZN_1_FLR_1 ZN FCU HEATING COIL OUTLET WATER NODE,Water,1
 Node,237,CORNER_CLASS_1_POD_3_ZN_1_FLR_1 ZN FCU HEATING COIL INLET WATER NODE,Water,1
 Node,238,CORNER_CLASS_1_POD_3_ZN_1_FLR_1 ZN FCU HEATING COIL OUTLET WATER NODE,Water,1
 Node,239,CAFETERIA_ZN_1_FLR_1 ZN FCU HEATING COIL INLET WATER NODE,Water,1
 Node,240,CAFETERIA_ZN_1_FLR_1 ZN FCU HEATING COIL OUTLET WATER NODE,Water,1
 Node,241,CORRIDOR_POD_2_ZN_1_FLR_1 ZN FCU HEATING COIL INLET WATER NODE,Water,1
 Node,242,CORRIDOR_POD_2_ZN_1_FLR_1 ZN FCU HEATING COIL OUTLET WATER NODE,Water,1
 Node,243,CORNER_CLASS_2_POD_3_ZN_1_FLR_1 ZN FCU HEATING COIL INLET WATER NODE,Water,1
 Node,244,CORNER_CLASS_2_POD_3_ZN_1_FLR_1 ZN FCU HEATING COIL OUTLET WATER NODE,Water,1
 Node,245,CORNER_CLASS_2_POD_2_ZN_1_FLR_1 ZN FCU HEATING COIL INLET WATER NODE,Water,1
 Node,246,CORNER_CLASS_2_POD_2_ZN_1_FLR_1 ZN FCU HEATING COIL OUTLET WATER NODE,Water,1
 Node,247,CORNER_CLASS_2_POD_1_ZN_1_FLR_1 ZN FCU HEATING COIL INLET WATER NODE,Water,1
 Node,248,CORNER_CLASS_2_POD_1_ZN_1_FLR_1 ZN FCU HEATING COIL OUTLET WATER NODE,Water,1
 Node,249,GYM_ZN_1_FLR_1 ZN FCU HEATING COIL INLET WATER NODE,Water,1
 Node,250,GYM_ZN_1_FLR_1 ZN FCU HEATING COIL OUTLET WATER NODE,Water,1
 Node,251,CORNER_CLASS_1_POD_1_ZN_1_FLR_1 ZN FCU HEATING COIL INLET WATER NODE,Water,1
 Node,252,CORNER_CLASS_1_POD_1_ZN_1_FLR_1 ZN FCU HEATING COIL OUTLET WATER NODE,Water,1
 Node,253,MULT_CLASS_1_POD_2_ZN_1_FLR_1 ZN FCU HEATING COIL INLET WATER NODE,Water,1
 Node,254,MULT_CLASS_1_POD_2_ZN_1_FLR_1 ZN FCU HEATING COIL OUTLET WATER NODE,Water,1
 Node,255,MULT_CLASS_1_POD_3_ZN_1_FLR_1 ZN FCU HEATING COIL INLET WATER NODE,Water,1
 Node,256,MULT_CLASS_1_POD_3_ZN_1_FLR_1 ZN FCU HEATING COIL OUTLET WATER NODE,Water,1
 Node,257,MAIN_CORRIDOR_ZN_1_FLR_1 ZN FCU HEATING COIL INLET WATER NODE,Water,1
 Node,258,MAIN_CORRIDOR_ZN_1_FLR_1 ZN FCU HEATING COIL OUTLET WATER NODE,Water,1
 Node,259,CORNER_CLASS_1_POD_2_ZN_1_FLR_1 ZN FCU HEATING COIL INLET WATER NODE,Water,1
 Node,260,CORNER_CLASS_1_POD_2_ZN_1_FLR_1 ZN FCU HEATING COIL OUTLET WATER NODE,Water,1
 Node,261,HOT WATER LOOP DEMAND BYPASS PIPE INLET NODE,Water,1
 Node,262,HOT WATER LOOP DEMAND BYPASS PIPE OUTLET NODE,Water,1
 Node,263,HOT WATER LOOP DEMAND OUTLET INLET WATER NODE,Water,1
 Node,264,HOT WATER LOOP DEMAND OUTLET NODE,Water,2
 Node,265,MAIN SERVICE WATER LOOP SUPPLY INLET NODE,Water,2
 Node,266,SERVICE WATER LOOP PUMP OUTLET WATER NODE,Water,1
 Node,267,200GAL NATURAL GAS WATER HEATER - 200KBTU/HR 0.802 THERM EFF SUPPLY INLET WATER NODE,Water,1
 Node,268,200GAL NATURAL GAS WATER HEATER - 200KBTU/HR 0.802 THERM EFF SUPPLY OUTLET WATER NODE,Water,1
 Node,269,PIPE ADIABATIC 6 INLET WATER NODE,Water,1
 Node,270,PIPE ADIABATIC 6 OUTLET WATER NODE,Water,1
 Node,271,PIPE ADIABATIC 8 INLET WATER NODE,Water,1
 Node,272,MAIN SERVICE WATER LOOP SUPPLY OUTLET NODE,Water,4
 Node,273,MAIN SERVICE WATER LOOP DEMAND INLET NODE,Water,2
 Node,274,PIPE ADIABATIC 9 OUTLET WATER NODE,Water,1
 Node,275,PIPE ADIABATIC 7 INLET WATER NODE,Water,1
 Node,276,PIPE ADIABATIC 7 OUTLET WATER NODE,Water,1
 Node,277,WATER USE CONNECTIONS 1 INLET WATER NODE,Water,1
 Node,278,WATER USE CONNECTIONS 1 OUTLET WATER NODE,Water,1
 Node,279,HX FOR BOOSTER WATER HEATING DEMAND INLET WATER NODE,Water,1
 Node,280,HX FOR BOOSTER WATER HEATING DEMAND OUTLET WATER NODE,Water,1
 Node,281,MAIN SERVICE WATER LOOP DEMAND BYPASS PIPE INLET NODE,Water,1
 Node,282,MAIN SERVICE WATER LOOP DEMAND BYPASS PIPE OUTLET NODE,Water,1
 Node,283,PIPE ADIABATIC 10 INLET WATER NODE,Water,1
 Node,284,MAIN SERVICE WATER LOOP DEMAND OUTLET NODE,Water,2
 Node,285,SERVICE WATER LOOP SUPPLY INLET NODE,Water,2
 Node,286,BOOSTER WATER LOOP PUMP INLET WATER NODE,Water,3
 Node,287,BOOSTER WATER LOOP PUMP OUTLET WATER NODE,Water,1
 Node,288,6.0GAL ELECTRICITY BOOSTER WATER HEATER - 20KBTU/HR 1.0 THERM EFF SUPPLY INLET WATER NODE,Water,1
 Node,289,6.0GAL ELECTRICITY BOOSTER WATER HEATER - 20KBTU/HR 1.0 THERM EFF SUPPLY OUTLET WATER NODE,Water,1
 Node,290,PIPE ADIABATIC 11 INLET WATER NODE,Water,1
 Node,291,PIPE ADIABATIC 11 OUTLET WATER NODE,Water,1
 Node,292,PIPE ADIABATIC 13 INLET WATER NODE,Water,1
 Node,293,SERVICE WATER LOOP SUPPLY OUTLET NODE,Water,5
 Node,294,SERVICE WATER LOOP DEMAND INLET NODE,Water,2
 Node,295,PIPE ADIABATIC 14 OUTLET WATER NODE,Water,1
 Node,296,PIPE ADIABATIC 12 INLET WATER NODE,Water,1
 Node,297,PIPE ADIABATIC 12 OUTLET WATER NODE,Water,1
 Node,298,WATER USE CONNECTIONS 2 INLET WATER NODE,Water,1
 Node,299,WATER USE CONNECTIONS 2 OUTLET WATER NODE,Water,1
 Node,300,SERVICE WATER LOOP DEMAND BYPASS PIPE INLET NODE,Water,1
 Node,301,SERVICE WATER LOOP DEMAND BYPASS PIPE OUTLET NODE,Water,1
 Node,302,PIPE ADIABATIC 15 INLET WATER NODE,Water,1
 Node,303,SERVICE WATER LOOP DEMAND OUTLET NODE,Water,2
 Node,304,BATH_ZN_1_FLR_1 ZN ZONE AIR NODE,Air,0
 Node,305,CAFETERIA_ZN_1_FLR_1 ZN ZONE AIR NODE,Air,0
 Node,306,COMPUTER_CLASS_ZN_1_FLR_1 ZN ZONE AIR NODE,Air,0
 Node,307,CORNER_CLASS_1_POD_1_ZN_1_FLR_1 ZN ZONE AIR NODE,Air,0
 Node,308,CORNER_CLASS_1_POD_2_ZN_1_FLR_1 ZN ZONE AIR NODE,Air,0
 Node,309,CORNER_CLASS_1_POD_3_ZN_1_FLR_1 ZN ZONE AIR NODE,Air,0
 Node,310,CORNER_CLASS_2_POD_1_ZN_1_FLR_1 ZN ZONE AIR NODE,Air,0
 Node,311,CORNER_CLASS_2_POD_2_ZN_1_FLR_1 ZN ZONE AIR NODE,Air,0
 Node,312,CORNER_CLASS_2_POD_3_ZN_1_FLR_1 ZN ZONE AIR NODE,Air,0
 Node,313,CORRIDOR_POD_1_ZN_1_FLR_1 ZN ZONE AIR NODE,Air,0
 Node,314,CORRIDOR_POD_2_ZN_1_FLR_1 ZN ZONE AIR NODE,Air,0
 Node,315,CORRIDOR_POD_3_ZN_1_FLR_1 ZN ZONE AIR NODE,Air,0
 Node,316,GYM_ZN_1_FLR_1 ZN ZONE AIR NODE,Air,0
 Node,317,KITCHEN_ZN_1_FLR_1 ZN ZONE AIR NODE,Air,0
 Node,318,LIBRARY_MEDIA_CENTER_ZN_1_FLR_1 ZN ZONE AIR NODE,Air,0
 Node,319,LOBBY_ZN_1_FLR_1 ZN ZONE AIR NODE,Air,0
 Node,320,MAIN_CORRIDOR_ZN_1_FLR_1 ZN ZONE AIR NODE,Air,0
 Node,321,MECH_ZN_1_FLR_1 ZN ZONE AIR NODE,Air,0
 Node,322,MULT_CLASS_1_POD_1_ZN_1_FLR_1 ZN ZONE AIR NODE,Air,0
 Node,323,MULT_CLASS_1_POD_2_ZN_1_FLR_1 ZN ZONE AIR NODE,Air,0
 Node,324,MULT_CLASS_1_POD_3_ZN_1_FLR_1 ZN ZONE AIR NODE,Air,0
 Node,325,MULT_CLASS_2_POD_1_ZN_1_FLR_1 ZN ZONE AIR NODE,Air,0
 Node,326,MULT_CLASS_2_POD_2_ZN_1_FLR_1 ZN ZONE AIR NODE,Air,0
 Node,327,MULT_CLASS_2_POD_3_ZN_1_FLR_1 ZN ZONE AIR NODE,Air,0
 Node,328,OFFICES_ZN_1_FLR_1 ZN ZONE AIR NODE,Air,0
 Node,329,25 ZONE DOAS DEMAND OUTLET NODE,Air,2
 Node,330,BATH_ZN_1_FLR_1 ZN FCU OA NODE,Air,1
 Node,331,CAFETERIA_ZN_1_FLR_1 ZN FCU OA NODE,Air,1
 Node,332,COMPUTER_CLASS_ZN_1_FLR_1 ZN FCU OA NODE,Air,1
 Node,333,CORNER_CLASS_1_POD_1_ZN_1_FLR_1 ZN FCU OA NODE,Air,1
 Node,334,CORNER_CLASS_1_POD_2_ZN_1_FLR_1 ZN FCU OA NODE,Air,1
 Node,335,CORNER_CLASS_1_POD_3_ZN_1_FLR_1 ZN FCU OA NODE,Air,1
 Node,336,CORNER_CLASS_2_POD_1_ZN_1_FLR_1 ZN FCU OA NODE,Air,1
 Node,337,CORNER_CLASS_2_POD_2_ZN_1_FLR_1 ZN FCU OA NODE,Air,1
 Node,338,CORNER_CLASS_2_POD_3_ZN_1_FLR_1 ZN FCU OA NODE,Air,1
 Node,339,CORRIDOR_POD_1_ZN_1_FLR_1 ZN FCU OA NODE,Air,1
 Node,340,CORRIDOR_POD_2_ZN_1_FLR_1 ZN FCU OA NODE,Air,1
 Node,341,CORRIDOR_POD_3_ZN_1_FLR_1 ZN FCU OA NODE,Air,1
 Node,342,GYM_ZN_1_FLR_1 ZN FCU OA NODE,Air,1
 Node,343,KITCHEN_ZN_1_FLR_1 ZN FCU OA NODE,Air,1
 Node,344,LIBRARY_MEDIA_CENTER_ZN_1_FLR_1 ZN FCU OA NODE,Air,1
 Node,345,LOBBY_ZN_1_FLR_1 ZN FCU OA NODE,Air,1
 Node,346,MAIN_CORRIDOR_ZN_1_FLR_1 ZN FCU OA NODE,Air,1
 Node,347,MECH_ZN_1_FLR_1 ZN FCU OA NODE,Air,1
 Node,348,MULT_CLASS_1_POD_1_ZN_1_FLR_1 ZN FCU OA NODE,Air,1
 Node,349,MULT_CLASS_1_POD_2_ZN_1_FLR_1 ZN FCU OA NODE,Air,1
 Node,350,MULT_CLASS_1_POD_3_ZN_1_FLR_1 ZN FCU OA NODE,Air,1
 Node,351,MULT_CLASS_2_POD_1_ZN_1_FLR_1 ZN FCU OA NODE,Air,1
 Node,352,MULT_CLASS_2_POD_2_ZN_1_FLR_1 ZN FCU OA NODE,Air,1
 Node,353,MULT_CLASS_2_POD_3_ZN_1_FLR_1 ZN FCU OA NODE,Air,1
 Node,354,OFFICES_ZN_1_FLR_1 ZN FCU OA NODE,Air,1
 Node,355,25 ZONE DOAS OUTDOOR AIR NODE,Air,2
 Node,356,MODEL OUTDOOR AIR NODE,Air,0
 Node,357,25 ZONE DOAS HEAT EXCHANGER PRIMARY OUTLET AIR NODE,Air,2
 Node,358,OFFICES_ZN_1_FLR_1 ZN AIR TERMINAL INLET AIR NODE,Air,1
 Node,359,MULT_CLASS_2_POD_2_ZN_1_FLR_1 ZN AIR TERMINAL INLET AIR NODE,Air,1
 Node,360,MULT_CLASS_2_POD_1_ZN_1_FLR_1 ZN AIR TERMINAL INLET AIR NODE,Air,1
 Node,361,MULT_CLASS_2_POD_3_ZN_1_FLR_1 ZN AIR TERMINAL INLET AIR NODE,Air,1
 Node,362,MULT_CLASS_1_POD_1_ZN_1_FLR_1 ZN AIR TERMINAL INLET AIR NODE,Air,1
 Node,363,BATH_ZN_1_FLR_1 ZN AIR TERMINAL INLET AIR NODE,Air,1
 Node,364,CORRIDOR_POD_1_ZN_1_FLR_1 ZN AIR TERMINAL INLET AIR NODE,Air,1
 Node,365,LIBRARY_MEDIA_CENTER_ZN_1_FLR_1 ZN AIR TERMINAL INLET AIR NODE,Air,1
 Node,366,KITCHEN_ZN_1_FLR_1 ZN AIR TERMINAL INLET AIR NODE,Air,1
 Node,367,LOBBY_ZN_1_FLR_1 ZN AIR TERMINAL INLET AIR NODE,Air,1
 Node,368,COMPUTER_CLASS_ZN_1_FLR_1 ZN AIR TERMINAL INLET AIR NODE,Air,1
 Node,369,CORRIDOR_POD_3_ZN_1_FLR_1 ZN AIR TERMINAL INLET AIR NODE,Air,1
 Node,370,MECH_ZN_1_FLR_1 ZN AIR TERMINAL INLET AIR NODE,Air,1
 Node,371,CORNER_CLASS_1_POD_3_ZN_1_FLR_1 ZN AIR TERMINAL INLET AIR NODE,Air,1
 Node,372,CAFETERIA_ZN_1_FLR_1 ZN AIR TERMINAL INLET AIR NODE,Air,1
 Node,373,CORRIDOR_POD_2_ZN_1_FLR_1 ZN AIR TERMINAL INLET AIR NODE,Air,1
 Node,374,CORNER_CLASS_2_POD_3_ZN_1_FLR_1 ZN AIR TERMINAL INLET AIR NODE,Air,1
 Node,375,CORNER_CLASS_2_POD_2_ZN_1_FLR_1 ZN AIR TERMINAL INLET AIR NODE,Air,1
 Node,376,CORNER_CLASS_2_POD_1_ZN_1_FLR_1 ZN AIR TERMINAL INLET AIR NODE,Air,1
 Node,377,GYM_ZN_1_FLR_1 ZN AIR TERMINAL INLET AIR NODE,Air,1
 Node,378,CORNER_CLASS_1_POD_1_ZN_1_FLR_1 ZN AIR TERMINAL INLET AIR NODE,Air,1
 Node,379,MULT_CLASS_1_POD_2_ZN_1_FLR_1 ZN AIR TERMINAL INLET AIR NODE,Air,1
 Node,380,MULT_CLASS_1_POD_3_ZN_1_FLR_1 ZN AIR TERMINAL INLET AIR NODE,Air,1
 Node,381,MAIN_CORRIDOR_ZN_1_FLR_1 ZN AIR TERMINAL INLET AIR NODE,Air,1
 Node,382,CORNER_CLASS_1_POD_2_ZN_1_FLR_1 ZN AIR TERMINAL INLET AIR NODE,Air,1
 Node,383,BATH_ZN_1_FLR_1 ZN EXHAUST FAN OUTLET AIR NODE,Air,0
 Node,384,KITCHEN_ZN_1_FLR_1 ZN EXHAUST FAN OUTLET AIR NODE,Air,0
 Node,385,BATH_ZN_1_FLR_1 ZN FCU MIXED AIR NODE,Air,1
 Node,386,BATH_ZN_1_FLR_1 ZN FCU FAN OUTLET NODE,Air,1
 Node,387,CAFETERIA_ZN_1_FLR_1 ZN FCU MIXED AIR NODE,Air,1
 Node,388,CAFETERIA_ZN_1_FLR_1 ZN FCU FAN OUTLET NODE,Air,1
 Node,389,COMPUTER_CLASS_ZN_1_FLR_1 ZN FCU MIXED AIR NODE,Air,1
 Node,390,COMPUTER_CLASS_ZN_1_FLR_1 ZN FCU FAN OUTLET NODE,Air,1
 Node,391,CORNER_CLASS_1_POD_1_ZN_1_FLR_1 ZN FCU MIXED AIR NODE,Air,1
 Node,392,CORNER_CLASS_1_POD_1_ZN_1_FLR_1 ZN FCU FAN OUTLET NODE,Air,1
 Node,393,CORNER_CLASS_1_POD_2_ZN_1_FLR_1 ZN FCU MIXED AIR NODE,Air,1
 Node,394,CORNER_CLASS_1_POD_2_ZN_1_FLR_1 ZN FCU FAN OUTLET NODE,Air,1
 Node,395,CORNER_CLASS_1_POD_3_ZN_1_FLR_1 ZN FCU MIXED AIR NODE,Air,1
 Node,396,CORNER_CLASS_1_POD_3_ZN_1_FLR_1 ZN FCU FAN OUTLET NODE,Air,1
 Node,397,CORNER_CLASS_2_POD_1_ZN_1_FLR_1 ZN FCU MIXED AIR NODE,Air,1
 Node,398,CORNER_CLASS_2_POD_1_ZN_1_FLR_1 ZN FCU FAN OUTLET NODE,Air,1
 Node,399,CORNER_CLASS_2_POD_2_ZN_1_FLR_1 ZN FCU MIXED AIR NODE,Air,1
 Node,400,CORNER_CLASS_2_POD_2_ZN_1_FLR_1 ZN FCU FAN OUTLET NODE,Air,1
 Node,401,CORNER_CLASS_2_POD_3_ZN_1_FLR_1 ZN FCU MIXED AIR NODE,Air,1
 Node,402,CORNER_CLASS_2_POD_3_ZN_1_FLR_1 ZN FCU FAN OUTLET NODE,Air,1
 Node,403,CORRIDOR_POD_1_ZN_1_FLR_1 ZN FCU MIXED AIR NODE,Air,1
 Node,404,CORRIDOR_POD_1_ZN_1_FLR_1 ZN FCU FAN OUTLET NODE,Air,1
 Node,405,CORRIDOR_POD_2_ZN_1_FLR_1 ZN FCU MIXED AIR NODE,Air,1
 Node,406,CORRIDOR_POD_2_ZN_1_FLR_1 ZN FCU FAN OUTLET NODE,Air,1
 Node,407,CORRIDOR_POD_3_ZN_1_FLR_1 ZN FCU MIXED AIR NODE,Air,1
 Node,408,CORRIDOR_POD_3_ZN_1_FLR_1 ZN FCU FAN OUTLET NODE,Air,1
 Node,409,GYM_ZN_1_FLR_1 ZN FCU MIXED AIR NODE,Air,1
 Node,410,GYM_ZN_1_FLR_1 ZN FCU FAN OUTLET NODE,Air,1
 Node,411,KITCHEN_ZN_1_FLR_1 ZN FCU MIXED AIR NODE,Air,1
 Node,412,KITCHEN_ZN_1_FLR_1 ZN FCU FAN OUTLET NODE,Air,1
 Node,413,LIBRARY_MEDIA_CENTER_ZN_1_FLR_1 ZN FCU MIXED AIR NODE,Air,1
 Node,414,LIBRARY_MEDIA_CENTER_ZN_1_FLR_1 ZN FCU FAN OUTLET NODE,Air,1
 Node,415,LOBBY_ZN_1_FLR_1 ZN FCU MIXED AIR NODE,Air,1
 Node,416,LOBBY_ZN_1_FLR_1 ZN FCU FAN OUTLET NODE,Air,1
 Node,417,MAIN_CORRIDOR_ZN_1_FLR_1 ZN FCU MIXED AIR NODE,Air,1
 Node,418,MAIN_CORRIDOR_ZN_1_FLR_1 ZN FCU FAN OUTLET NODE,Air,1
 Node,419,MECH_ZN_1_FLR_1 ZN FCU MIXED AIR NODE,Air,1
 Node,420,MECH_ZN_1_FLR_1 ZN FCU FAN OUTLET NODE,Air,1
 Node,421,MULT_CLASS_1_POD_1_ZN_1_FLR_1 ZN FCU MIXED AIR NODE,Air,1
 Node,422,MULT_CLASS_1_POD_1_ZN_1_FLR_1 ZN FCU FAN OUTLET NODE,Air,1
 Node,423,MULT_CLASS_1_POD_2_ZN_1_FLR_1 ZN FCU MIXED AIR NODE,Air,1
 Node,424,MULT_CLASS_1_POD_2_ZN_1_FLR_1 ZN FCU FAN OUTLET NODE,Air,1
 Node,425,MULT_CLASS_1_POD_3_ZN_1_FLR_1 ZN FCU MIXED AIR NODE,Air,1
 Node,426,MULT_CLASS_1_POD_3_ZN_1_FLR_1 ZN FCU FAN OUTLET NODE,Air,1
 Node,427,MULT_CLASS_2_POD_1_ZN_1_FLR_1 ZN FCU MIXED AIR NODE,Air,1
 Node,428,MULT_CLASS_2_POD_1_ZN_1_FLR_1 ZN FCU FAN OUTLET NODE,Air,1
 Node,429,MULT_CLASS_2_POD_2_ZN_1_FLR_1 ZN FCU MIXED AIR NODE,Air,1
 Node,430,MULT_CLASS_2_POD_2_ZN_1_FLR_1 ZN FCU FAN OUTLET NODE,Air,1
 Node,431,MULT_CLASS_2_POD_3_ZN_1_FLR_1 ZN FCU MIXED AIR NODE,Air,1
 Node,432,MULT_CLASS_2_POD_3_ZN_1_FLR_1 ZN FCU FAN OUTLET NODE,Air,1
 Node,433,OFFICES_ZN_1_FLR_1 ZN FCU MIXED AIR NODE,Air,1
 Node,434,OFFICES_ZN_1_FLR_1 ZN FCU FAN OUTLET NODE,Air,1
 Node,435,BATH_ZN_1_FLR_1 ZN FCU RELIEF AIR NODE,Air,0
 Node,436,CAFETERIA_ZN_1_FLR_1 ZN FCU RELIEF AIR NODE,Air,0
 Node,437,COMPUTER_CLASS_ZN_1_FLR_1 ZN FCU RELIEF AIR NODE,Air,0
 Node,438,CORNER_CLASS_1_POD_1_ZN_1_FLR_1 ZN FCU RELIEF AIR NODE,Air,0
 Node,439,CORNER_CLASS_1_POD_2_ZN_1_FLR_1 ZN FCU RELIEF AIR NODE,Air,0
 Node,440,CORNER_CLASS_1_POD_3_ZN_1_FLR_1 ZN FCU RELIEF AIR NODE,Air,0
 Node,441,CORNER_CLASS_2_POD_1_ZN_1_FLR_1 ZN FCU RELIEF AIR NODE,Air,0
 Node,442,CORNER_CLASS_2_POD_2_ZN_1_FLR_1 ZN FCU RELIEF AIR NODE,Air,0
 Node,443,CORNER_CLASS_2_POD_3_ZN_1_FLR_1 ZN FCU RELIEF AIR NODE,Air,0
 Node,444,CORRIDOR_POD_1_ZN_1_FLR_1 ZN FCU RELIEF AIR NODE,Air,0
 Node,445,CORRIDOR_POD_2_ZN_1_FLR_1 ZN FCU RELIEF AIR NODE,Air,0
 Node,446,CORRIDOR_POD_3_ZN_1_FLR_1 ZN FCU RELIEF AIR NODE,Air,0
 Node,447,GYM_ZN_1_FLR_1 ZN FCU RELIEF AIR NODE,Air,0
 Node,448,KITCHEN_ZN_1_FLR_1 ZN FCU RELIEF AIR NODE,Air,0
 Node,449,LIBRARY_MEDIA_CENTER_ZN_1_FLR_1 ZN FCU RELIEF AIR NODE,Air,0
 Node,450,LOBBY_ZN_1_FLR_1 ZN FCU RELIEF AIR NODE,Air,0
 Node,451,MAIN_CORRIDOR_ZN_1_FLR_1 ZN FCU RELIEF AIR NODE,Air,0
 Node,452,MECH_ZN_1_FLR_1 ZN FCU RELIEF AIR NODE,Air,0
 Node,453,MULT_CLASS_1_POD_1_ZN_1_FLR_1 ZN FCU RELIEF AIR NODE,Air,0
 Node,454,MULT_CLASS_1_POD_2_ZN_1_FLR_1 ZN FCU RELIEF AIR NODE,Air,0
 Node,455,MULT_CLASS_1_POD_3_ZN_1_FLR_1 ZN FCU RELIEF AIR NODE,Air,0
 Node,456,MULT_CLASS_2_POD_1_ZN_1_FLR_1 ZN FCU RELIEF AIR NODE,Air,0
 Node,457,MULT_CLASS_2_POD_2_ZN_1_FLR_1 ZN FCU RELIEF AIR NODE,Air,0
 Node,458,MULT_CLASS_2_POD_3_ZN_1_FLR_1 ZN FCU RELIEF AIR NODE,Air,0
 Node,459,OFFICES_ZN_1_FLR_1 ZN FCU RELIEF AIR NODE,Air,0
 Node,460,25 ZONE DOAS HEAT EXCHANGER SECONDARY INLET AIR NODE,Air,2
 Node,461,BATH_ZN_1_FLR_1 ZN FCU COOLING COIL OUTLET NODE,Air,1
 Node,462,CAFETERIA_ZN_1_FLR_1 ZN FCU COOLING COIL OUTLET NODE,Air,1
 Node,463,COMPUTER_CLASS_ZN_1_FLR_1 ZN FCU COOLING COIL OUTLET NODE,Air,1
 Node,464,CORNER_CLASS_1_POD_1_ZN_1_FLR_1 ZN FCU COOLING COIL OUTLET NODE,Air,1
 Node,465,CORNER_CLASS_1_POD_2_ZN_1_FLR_1 ZN FCU COOLING COIL OUTLET NODE,Air,1
 Node,466,CORNER_CLASS_1_POD_3_ZN_1_FLR_1 ZN FCU COOLING COIL OUTLET NODE,Air,1
 Node,467,CORNER_CLASS_2_POD_1_ZN_1_FLR_1 ZN FCU COOLING COIL OUTLET NODE,Air,1
 Node,468,CORNER_CLASS_2_POD_2_ZN_1_FLR_1 ZN FCU COOLING COIL OUTLET NODE,Air,1
 Node,469,CORNER_CLASS_2_POD_3_ZN_1_FLR_1 ZN FCU COOLING COIL OUTLET NODE,Air,1
 Node,470,CORRIDOR_POD_1_ZN_1_FLR_1 ZN FCU COOLING COIL OUTLET NODE,Air,1
 Node,471,CORRIDOR_POD_2_ZN_1_FLR_1 ZN FCU COOLING COIL OUTLET NODE,Air,1
 Node,472,CORRIDOR_POD_3_ZN_1_FLR_1 ZN FCU COOLING COIL OUTLET NODE,Air,1
 Node,473,GYM_ZN_1_FLR_1 ZN FCU COOLING COIL OUTLET NODE,Air,1
 Node,474,KITCHEN_ZN_1_FLR_1 ZN FCU COOLING COIL OUTLET NODE,Air,1
 Node,475,LIBRARY_MEDIA_CENTER_ZN_1_FLR_1 ZN FCU COOLING COIL OUTLET NODE,Air,1
 Node,476,LOBBY_ZN_1_FLR_1 ZN FCU COOLING COIL OUTLET NODE,Air,1
 Node,477,MAIN_CORRIDOR_ZN_1_FLR_1 ZN FCU COOLING COIL OUTLET NODE,Air,1
 Node,478,MECH_ZN_1_FLR_1 ZN FCU COOLING COIL OUTLET NODE,Air,1
 Node,479,MULT_CLASS_1_POD_1_ZN_1_FLR_1 ZN FCU COOLING COIL OUTLET NODE,Air,1
 Node,480,MULT_CLASS_1_POD_2_ZN_1_FLR_1 ZN FCU COOLING COIL OUTLET NODE,Air,1
 Node,481,MULT_CLASS_1_POD_3_ZN_1_FLR_1 ZN FCU COOLING COIL OUTLET NODE,Air,1
 Node,482,MULT_CLASS_2_POD_1_ZN_1_FLR_1 ZN FCU COOLING COIL OUTLET NODE,Air,1
 Node,483,MULT_CLASS_2_POD_2_ZN_1_FLR_1 ZN FCU COOLING COIL OUTLET NODE,Air,1
 Node,484,MULT_CLASS_2_POD_3_ZN_1_FLR_1 ZN FCU COOLING COIL OUTLET NODE,Air,1
 Node,485,OFFICES_ZN_1_FLR_1 ZN FCU COOLING COIL OUTLET NODE,Air,1
 Node,486,25 ZONE DOAS RELIEF AIR NODE,Air,0
! ===============================================================
! Suspicious nodes have 0 references.  It is normal for some nodes, however.
! Listing nodes with 0 references (culled from previous list):
! <Suspicious Node>,<NodeNumber>,<Node Name>,<Node Fluid Type>,<# Times Node Referenced After Definition>
 Suspicious Node,304,BATH_ZN_1_FLR_1 ZN ZONE AIR NODE,Air,0
 Suspicious Node,305,CAFETERIA_ZN_1_FLR_1 ZN ZONE AIR NODE,Air,0
 Suspicious Node,306,COMPUTER_CLASS_ZN_1_FLR_1 ZN ZONE AIR NODE,Air,0
 Suspicious Node,307,CORNER_CLASS_1_POD_1_ZN_1_FLR_1 ZN ZONE AIR NODE,Air,0
 Suspicious Node,308,CORNER_CLASS_1_POD_2_ZN_1_FLR_1 ZN ZONE AIR NODE,Air,0
 Suspicious Node,309,CORNER_CLASS_1_POD_3_ZN_1_FLR_1 ZN ZONE AIR NODE,Air,0
 Suspicious Node,310,CORNER_CLASS_2_POD_1_ZN_1_FLR_1 ZN ZONE AIR NODE,Air,0
 Suspicious Node,311,CORNER_CLASS_2_POD_2_ZN_1_FLR_1 ZN ZONE AIR NODE,Air,0
 Suspicious Node,312,CORNER_CLASS_2_POD_3_ZN_1_FLR_1 ZN ZONE AIR NODE,Air,0
 Suspicious Node,313,CORRIDOR_POD_1_ZN_1_FLR_1 ZN ZONE AIR NODE,Air,0
 Suspicious Node,314,CORRIDOR_POD_2_ZN_1_FLR_1 ZN ZONE AIR NODE,Air,0
 Suspicious Node,315,CORRIDOR_POD_3_ZN_1_FLR_1 ZN ZONE AIR NODE,Air,0
 Suspicious Node,316,GYM_ZN_1_FLR_1 ZN ZONE AIR NODE,Air,0
 Suspicious Node,317,KITCHEN_ZN_1_FLR_1 ZN ZONE AIR NODE,Air,0
 Suspicious Node,318,LIBRARY_MEDIA_CENTER_ZN_1_FLR_1 ZN ZONE AIR NODE,Air,0
 Suspicious Node,319,LOBBY_ZN_1_FLR_1 ZN ZONE AIR NODE,Air,0
 Suspicious Node,320,MAIN_CORRIDOR_ZN_1_FLR_1 ZN ZONE AIR NODE,Air,0
 Suspicious Node,321,MECH_ZN_1_FLR_1 ZN ZONE AIR NODE,Air,0
 Suspicious Node,322,MULT_CLASS_1_POD_1_ZN_1_FLR_1 ZN ZONE AIR NODE,Air,0
 Suspicious Node,323,MULT_CLASS_1_POD_2_ZN_1_FLR_1 ZN ZONE AIR NODE,Air,0
 Suspicious Node,324,MULT_CLASS_1_POD_3_ZN_1_FLR_1 ZN ZONE AIR NODE,Air,0
 Suspicious Node,325,MULT_CLASS_2_POD_1_ZN_1_FLR_1 ZN ZONE AIR NODE,Air,0
 Suspicious Node,326,MULT_CLASS_2_POD_2_ZN_1_FLR_1 ZN ZONE AIR NODE,Air,0
 Suspicious Node,327,MULT_CLASS_2_POD_3_ZN_1_FLR_1 ZN ZONE AIR NODE,Air,0
 Suspicious Node,328,OFFICES_ZN_1_FLR_1 ZN ZONE AIR NODE,Air,0
 Suspicious Node,356,MODEL OUTDOOR AIR NODE,Air,0
 Suspicious Node,383,BATH_ZN_1_FLR_1 ZN EXHAUST FAN OUTLET AIR NODE,Air,0
 Suspicious Node,384,KITCHEN_ZN_1_FLR_1 ZN EXHAUST FAN OUTLET AIR NODE,Air,0
 Suspicious Node,435,BATH_ZN_1_FLR_1 ZN FCU RELIEF AIR NODE,Air,0
 Suspicious Node,436,CAFETERIA_ZN_1_FLR_1 ZN FCU RELIEF AIR NODE,Air,0
 Suspicious Node,437,COMPUTER_CLASS_ZN_1_FLR_1 ZN FCU RELIEF AIR NODE,Air,0
 Suspicious Node,438,CORNER_CLASS_1_POD_1_ZN_1_FLR_1 ZN FCU RELIEF AIR NODE,Air,0
 Suspicious Node,439,CORNER_CLASS_1_POD_2_ZN_1_FLR_1 ZN FCU RELIEF AIR NODE,Air,0
 Suspicious Node,440,CORNER_CLASS_1_POD_3_ZN_1_FLR_1 ZN FCU RELIEF AIR NODE,Air,0
 Suspicious Node,441,CORNER_CLASS_2_POD_1_ZN_1_FLR_1 ZN FCU RELIEF AIR NODE,Air,0
 Suspicious Node,442,CORNER_CLASS_2_POD_2_ZN_1_FLR_1 ZN FCU RELIEF AIR NODE,Air,0
 Suspicious Node,443,CORNER_CLASS_2_POD_3_ZN_1_FLR_1 ZN FCU RELIEF AIR NODE,Air,0
 Suspicious Node,444,CORRIDOR_POD_1_ZN_1_FLR_1 ZN FCU RELIEF AIR NODE,Air,0
 Suspicious Node,445,CORRIDOR_POD_2_ZN_1_FLR_1 ZN FCU RELIEF AIR NODE,Air,0
 Suspicious Node,446,CORRIDOR_POD_3_ZN_1_FLR_1 ZN FCU RELIEF AIR NODE,Air,0
 Suspicious Node,447,GYM_ZN_1_FLR_1 ZN FCU RELIEF AIR NODE,Air,0
 Suspicious Node,448,KITCHEN_ZN_1_FLR_1 ZN FCU RELIEF AIR NODE,Air,0
 Suspicious Node,449,LIBRARY_MEDIA_CENTER_ZN_1_FLR_1 ZN FCU RELIEF AIR NODE,Air,0
 Suspicious Node,450,LOBBY_ZN_1_FLR_1 ZN FCU RELIEF AIR NODE,Air,0
 Suspicious Node,451,MAIN_CORRIDOR_ZN_1_FLR_1 ZN FCU RELIEF AIR NODE,Air,0
 Suspicious Node,452,MECH_ZN_1_FLR_1 ZN FCU RELIEF AIR NODE,Air,0
 Suspicious Node,453,MULT_CLASS_1_POD_1_ZN_1_FLR_1 ZN FCU RELIEF AIR NODE,Air,0
 Suspicious Node,454,MULT_CLASS_1_POD_2_ZN_1_FLR_1 ZN FCU RELIEF AIR NODE,Air,0
 Suspicious Node,455,MULT_CLASS_1_POD_3_ZN_1_FLR_1 ZN FCU RELIEF AIR NODE,Air,0
 Suspicious Node,456,MULT_CLASS_2_POD_1_ZN_1_FLR_1 ZN FCU RELIEF AIR NODE,Air,0
 Suspicious Node,457,MULT_CLASS_2_POD_2_ZN_1_FLR_1 ZN FCU RELIEF AIR NODE,Air,0
 Suspicious Node,458,MULT_CLASS_2_POD_3_ZN_1_FLR_1 ZN FCU RELIEF AIR NODE,Air,0
 Suspicious Node,459,OFFICES_ZN_1_FLR_1 ZN FCU RELIEF AIR NODE,Air,0
 Suspicious Node,486,25 ZONE DOAS RELIEF AIR NODE,Air,0
! ===============================================================
! <#Branch Lists>,<Number of Branch Lists>
 #Branch Lists,11
! <Branch List>,<Branch List Count>,<Branch List Name>,<Loop Name>,<Loop Type>,<Number of Branches>
! <Branch>,<Branch Count>,<Branch Name>,<Loop Name>,<Loop Type>,<Branch Inlet Node Name>,<Branch Outlet Node Name>
 Branch List,1,25 ZONE DOAS SUPPLY BRANCHES,25 ZONE DOAS,Air,1
   Branch,1,25 ZONE DOAS MAIN BRANCH,25 ZONE DOAS,Air,25 ZONE DOAS SUPPLY INLET NODE,25 ZONE DOAS SUPPLY OUTLET NODE
 Branch List,2,CHILLED WATER LOOP SUPPLY BRANCHES,CHILLED WATER LOOP,Plant Supply,4
   Branch,1,CHILLED WATER LOOP SUPPLY INLET BRANCH,CHILLED WATER LOOP,Plant Supply,CHILLED WATER LOOP SUPPLY INLET NODE,CHILLED WATER LOOP PRIMARY PUMP OUTLET WATER NODE
   Branch,2,CHILLED WATER LOOP SUPPLY BRANCH 1,CHILLED WATER LOOP,Plant Supply,NREL ZNE READY 2017 WATERCOOLED  ROTARY SCREW CHILLER 0 SUPPLY INLET WATER NODE,NREL ZNE READY 2017 WATERCOOLED  ROTARY SCREW CHILLER 0 SUPPLY OUTLET WATER NODE
   Branch,3,CHILLED WATER LOOP SUPPLY BRANCH 2,CHILLED WATER LOOP,Plant Supply,CHILLED WATER LOOP CHILLER BYPASS INLET WATER NODE,CHILLED WATER LOOP CHILLER BYPASS OUTLET WATER NODE
   Branch,4,CHILLED WATER LOOP SUPPLY OUTLET BRANCH,CHILLED WATER LOOP,Plant Supply,CHILLED WATER LOOP SUPPLY OUTLET INLET WATER NODE,CHILLED WATER LOOP SUPPLY OUTLET NODE
 Branch List,3,CHILLED WATER LOOP DEMAND BRANCHES,CHILLED WATER LOOP,Plant Demand,30
   Branch,1,CHILLED WATER LOOP DEMAND INLET BRANCH,CHILLED WATER LOOP,Plant Demand,CHILLED WATER LOOP DEMAND INLET NODE,CHILLED WATER LOOP SECONDARY PUMP OUTLET WATER NODE
   Branch,2,CHILLED WATER LOOP DEMAND BRANCH 1,CHILLED WATER LOOP,Plant Demand,CHILLED WATER LOOP COIL BYPASS INLET WATER NODE,CHILLED WATER LOOP COIL BYPASS OUTLET WATER NODE
   Branch,3,CHILLED WATER LOOP DEMAND BRANCH 2,CHILLED WATER LOOP,Plant Demand,25 ZONE DOAS CLG COIL INLET WATER NODE,25 ZONE DOAS CLG COIL OUTLET WATER NODE
   Branch,4,CHILLED WATER LOOP DEMAND BRANCH 3,CHILLED WATER LOOP,Plant Demand,OFFICES_ZN_1_FLR_1 ZN FCU COOLING COIL INLET WATER NODE,OFFICES_ZN_1_FLR_1 ZN FCU COOLING COIL OUTLET WATER NODE
   Branch,5,CHILLED WATER LOOP DEMAND BRANCH 4,CHILLED WATER LOOP,Plant Demand,MULT_CLASS_2_POD_2_ZN_1_FLR_1 ZN FCU COOLING COIL INLET WATER NODE,MULT_CLASS_2_POD_2_ZN_1_FLR_1 ZN FCU COOLING COIL OUTLET WATER NODE
   Branch,6,CHILLED WATER LOOP DEMAND BRANCH 5,CHILLED WATER LOOP,Plant Demand,MULT_CLASS_2_POD_1_ZN_1_FLR_1 ZN FCU COOLING COIL INLET WATER NODE,MULT_CLASS_2_POD_1_ZN_1_FLR_1 ZN FCU COOLING COIL OUTLET WATER NODE
   Branch,7,CHILLED WATER LOOP DEMAND BRANCH 6,CHILLED WATER LOOP,Plant Demand,MULT_CLASS_2_POD_3_ZN_1_FLR_1 ZN FCU COOLING COIL INLET WATER NODE,MULT_CLASS_2_POD_3_ZN_1_FLR_1 ZN FCU COOLING COIL OUTLET WATER NODE
   Branch,8,CHILLED WATER LOOP DEMAND BRANCH 7,CHILLED WATER LOOP,Plant Demand,MULT_CLASS_1_POD_1_ZN_1_FLR_1 ZN FCU COOLING COIL INLET WATER NODE,MULT_CLASS_1_POD_1_ZN_1_FLR_1 ZN FCU COOLING COIL OUTLET WATER NODE
   Branch,9,CHILLED WATER LOOP DEMAND BRANCH 8,CHILLED WATER LOOP,Plant Demand,BATH_ZN_1_FLR_1 ZN FCU COOLING COIL INLET WATER NODE,BATH_ZN_1_FLR_1 ZN FCU COOLING COIL OUTLET WATER NODE
   Branch,10,CHILLED WATER LOOP DEMAND BRANCH 9,CHILLED WATER LOOP,Plant Demand,CORRIDOR_POD_1_ZN_1_FLR_1 ZN FCU COOLING COIL INLET WATER NODE,CORRIDOR_POD_1_ZN_1_FLR_1 ZN FCU COOLING COIL OUTLET WATER NODE
   Branch,11,CHILLED WATER LOOP DEMAND BRANCH 10,CHILLED WATER LOOP,Plant Demand,LIBRARY_MEDIA_CENTER_ZN_1_FLR_1 ZN FCU COOLING COIL INLET WATER NODE,LIBRARY_MEDIA_CENTER_ZN_1_FLR_1 ZN FCU COOLING COIL OUTLET WATER NODE
   Branch,12,CHILLED WATER LOOP DEMAND BRANCH 11,CHILLED WATER LOOP,Plant Demand,KITCHEN_ZN_1_FLR_1 ZN FCU COOLING COIL INLET WATER NODE,KITCHEN_ZN_1_FLR_1 ZN FCU COOLING COIL OUTLET WATER NODE
   Branch,13,CHILLED WATER LOOP DEMAND BRANCH 12,CHILLED WATER LOOP,Plant Demand,LOBBY_ZN_1_FLR_1 ZN FCU COOLING COIL INLET WATER NODE,LOBBY_ZN_1_FLR_1 ZN FCU COOLING COIL OUTLET WATER NODE
   Branch,14,CHILLED WATER LOOP DEMAND BRANCH 13,CHILLED WATER LOOP,Plant Demand,COMPUTER_CLASS_ZN_1_FLR_1 ZN FCU COOLING COIL INLET WATER NODE,COMPUTER_CLASS_ZN_1_FLR_1 ZN FCU COOLING COIL OUTLET WATER NODE
   Branch,15,CHILLED WATER LOOP DEMAND BRANCH 14,CHILLED WATER LOOP,Plant Demand,CORRIDOR_POD_3_ZN_1_FLR_1 ZN FCU COOLING COIL INLET WATER NODE,CORRIDOR_POD_3_ZN_1_FLR_1 ZN FCU COOLING COIL OUTLET WATER NODE
   Branch,16,CHILLED WATER LOOP DEMAND BRANCH 15,CHILLED WATER LOOP,Plant Demand,MECH_ZN_1_FLR_1 ZN FCU COOLING COIL INLET WATER NODE,MECH_ZN_1_FLR_1 ZN FCU COOLING COIL OUTLET WATER NODE
   Branch,17,CHILLED WATER LOOP DEMAND BRANCH 16,CHILLED WATER LOOP,Plant Demand,CORNER_CLASS_1_POD_3_ZN_1_FLR_1 ZN FCU COOLING COIL INLET WATER NODE,CORNER_CLASS_1_POD_3_ZN_1_FLR_1 ZN FCU COOLING COIL OUTLET WATER NODE
   Branch,18,CHILLED WATER LOOP DEMAND BRANCH 17,CHILLED WATER LOOP,Plant Demand,CAFETERIA_ZN_1_FLR_1 ZN FCU COOLING COIL INLET WATER NODE,CAFETERIA_ZN_1_FLR_1 ZN FCU COOLING COIL OUTLET WATER NODE
   Branch,19,CHILLED WATER LOOP DEMAND BRANCH 18,CHILLED WATER LOOP,Plant Demand,CORRIDOR_POD_2_ZN_1_FLR_1 ZN FCU COOLING COIL INLET WATER NODE,CORRIDOR_POD_2_ZN_1_FLR_1 ZN FCU COOLING COIL OUTLET WATER NODE
   Branch,20,CHILLED WATER LOOP DEMAND BRANCH 19,CHILLED WATER LOOP,Plant Demand,CORNER_CLASS_2_POD_3_ZN_1_FLR_1 ZN FCU COOLING COIL INLET WATER NODE,CORNER_CLASS_2_POD_3_ZN_1_FLR_1 ZN FCU COOLING COIL OUTLET WATER NODE
   Branch,21,CHILLED WATER LOOP DEMAND BRANCH 20,CHILLED WATER LOOP,Plant Demand,CORNER_CLASS_2_POD_2_ZN_1_FLR_1 ZN FCU COOLING COIL INLET WATER NODE,CORNER_CLASS_2_POD_2_ZN_1_FLR_1 ZN FCU COOLING COIL OUTLET WATER NODE
   Branch,22,CHILLED WATER LOOP DEMAND BRANCH 21,CHILLED WATER LOOP,Plant Demand,CORNER_CLASS_2_POD_1_ZN_1_FLR_1 ZN FCU COOLING COIL INLET WATER NODE,CORNER_CLASS_2_POD_1_ZN_1_FLR_1 ZN FCU COOLING COIL OUTLET WATER NODE
   Branch,23,CHILLED WATER LOOP DEMAND BRANCH 22,CHILLED WATER LOOP,Plant Demand,GYM_ZN_1_FLR_1 ZN FCU COOLING COIL INLET WATER NODE,GYM_ZN_1_FLR_1 ZN FCU COOLING COIL OUTLET WATER NODE
   Branch,24,CHILLED WATER LOOP DEMAND BRANCH 23,CHILLED WATER LOOP,Plant Demand,CORNER_CLASS_1_POD_1_ZN_1_FLR_1 ZN FCU COOLING COIL INLET WATER NODE,CORNER_CLASS_1_POD_1_ZN_1_FLR_1 ZN FCU COOLING COIL OUTLET WATER NODE
   Branch,25,CHILLED WATER LOOP DEMAND BRANCH 24,CHILLED WATER LOOP,Plant Demand,MULT_CLASS_1_POD_2_ZN_1_FLR_1 ZN FCU COOLING COIL INLET WATER NODE,MULT_CLASS_1_POD_2_ZN_1_FLR_1 ZN FCU COOLING COIL OUTLET WATER NODE
   Branch,26,CHILLED WATER LOOP DEMAND BRANCH 25,CHILLED WATER LOOP,Plant Demand,MULT_CLASS_1_POD_3_ZN_1_FLR_1 ZN FCU COOLING COIL INLET WATER NODE,MULT_CLASS_1_POD_3_ZN_1_FLR_1 ZN FCU COOLING COIL OUTLET WATER NODE
   Branch,27,CHILLED WATER LOOP DEMAND BRANCH 26,CHILLED WATER LOOP,Plant Demand,MAIN_CORRIDOR_ZN_1_FLR_1 ZN FCU COOLING COIL INLET WATER NODE,MAIN_CORRIDOR_ZN_1_FLR_1 ZN FCU COOLING COIL OUTLET WATER NODE
   Branch,28,CHILLED WATER LOOP DEMAND BRANCH 27,CHILLED WATER LOOP,Plant Demand,CORNER_CLASS_1_POD_2_ZN_1_FLR_1 ZN FCU COOLING COIL INLET WATER NODE,CORNER_CLASS_1_POD_2_ZN_1_FLR_1 ZN FCU COOLING COIL OUTLET WATER NODE
   Branch,29,CHILLED WATER LOOP DEMAND BYPASS BRANCH,CHILLED WATER LOOP,Plant Demand,CHILLED WATER LOOP DEMAND BYPASS PIPE INLET NODE,CHILLED WATER LOOP DEMAND BYPASS PIPE OUTLET NODE
   Branch,30,CHILLED WATER LOOP DEMAND OUTLET BRANCH,CHILLED WATER LOOP,Plant Demand,CHILLED WATER LOOP DEMAND OUTLET INLET WATER NODE,CHILLED WATER LOOP DEMAND OUTLET NODE
 Branch List,4,CONDENSER WATER LOOP SUPPLY BRANCHES,CONDENSER WATER LOOP,Plant Supply,4
   Branch,1,CONDENSER WATER LOOP SUPPLY INLET BRANCH,CONDENSER WATER LOOP,Plant Supply,CONDENSER WATER LOOP SUPPLY INLET NODE,CONDENSER WATER LOOP CONSTANT PUMP OUTLET WATER NODE
   Branch,2,CONDENSER WATER LOOP SUPPLY BRANCH 1,CONDENSER WATER LOOP,Plant Supply,PROPELLER OR AXIAL VARIABLE SPEED FAN OPEN COOLING TOWER INLET WATER NODE,PROPELLER OR AXIAL VARIABLE SPEED FAN OPEN COOLING TOWER OUTLET WATER NODE
   Branch,3,CONDENSER WATER LOOP SUPPLY BRANCH 2,CONDENSER WATER LOOP,Plant Supply,CONDENSER WATER LOOP COOLING TOWER BYPASS INLET WATER NODE,CONDENSER WATER LOOP COOLING TOWER BYPASS OUTLET WATER NODE
   Branch,4,CONDENSER WATER LOOP SUPPLY OUTLET BRANCH,CONDENSER WATER LOOP,Plant Supply,CONDENSER WATER LOOP SUPPLY OUTLET INLET WATER NODE,CONDENSER WATER LOOP SUPPLY OUTLET NODE
 Branch List,5,CONDENSER WATER LOOP DEMAND BRANCHES,CONDENSER WATER LOOP,Plant Demand,5
   Branch,1,CONDENSER WATER LOOP DEMAND INLET BRANCH,CONDENSER WATER LOOP,Plant Demand,CONDENSER WATER LOOP DEMAND INLET NODE,CONDENSER WATER LOOP DEMAND INLET OUTLET WATER NODE
   Branch,2,CONDENSER WATER LOOP DEMAND BRANCH 1,CONDENSER WATER LOOP,Plant Demand,CONDENSER WATER LOOP CHILLER BYPASS INLET WATER NODE,CONDENSER WATER LOOP CHILLER BYPASS OUTLET WATER NODE
   Branch,3,CONDENSER WATER LOOP DEMAND BRANCH 2,CONDENSER WATER LOOP,Plant Demand,NREL ZNE READY 2017 WATERCOOLED  ROTARY SCREW CHILLER 0 DEMAND INLET WATER NODE,NREL ZNE READY 2017 WATERCOOLED  ROTARY SCREW CHILLER 0 DEMAND OUTLET WATER NODE
   Branch,4,CONDENSER WATER LOOP DEMAND BYPASS BRANCH,CONDENSER WATER LOOP,Plant Demand,CONDENSER WATER LOOP DEMAND BYPASS PIPE INLET NODE,CONDENSER WATER LOOP DEMAND BYPASS PIPE OUTLET NODE
   Branch,5,CONDENSER WATER LOOP DEMAND OUTLET BRANCH,CONDENSER WATER LOOP,Plant Demand,CONDENSER WATER LOOP DEMAND OUTLET INLET WATER NODE,CONDENSER WATER LOOP DEMAND OUTLET NODE
 Branch List,6,HOT WATER LOOP SUPPLY BRANCHES,HOT WATER LOOP,Plant Supply,4
   Branch,1,HOT WATER LOOP SUPPLY INLET BRANCH,HOT WATER LOOP,Plant Supply,HOT WATER LOOP SUPPLY INLET NODE,HOT WATER LOOP PUMP OUTLET WATER NODE
   Branch,2,HOT WATER LOOP SUPPLY BRANCH 1,HOT WATER LOOP,Plant Supply,BOILER INLET WATER NODE,BOILER OUTLET WATER NODE
   Branch,3,HOT WATER LOOP SUPPLY BRANCH 2,HOT WATER LOOP,Plant Supply,HOT WATER LOOP SUPPLY EQUIPMENT BYPASS INLET WATER NODE,HOT WATER LOOP SUPPLY EQUIPMENT BYPASS OUTLET WATER NODE
   Branch,4,HOT WATER LOOP SUPPLY OUTLET BRANCH,HOT WATER LOOP,Plant Supply,HOT WATER LOOP SUPPLY OUTLET INLET WATER NODE,HOT WATER LOOP SUPPLY OUTLET NODE
 Branch List,7,HOT WATER LOOP DEMAND BRANCHES,HOT WATER LOOP,Plant Demand,30
   Branch,1,HOT WATER LOOP DEMAND INLET BRANCH,HOT WATER LOOP,Plant Demand,HOT WATER LOOP DEMAND INLET NODE,HOT WATER LOOP DEMAND INLET OUTLET WATER NODE
   Branch,2,HOT WATER LOOP DEMAND BRANCH 1,HOT WATER LOOP,Plant Demand,HOT WATER LOOP COIL BYPASS INLET WATER NODE,HOT WATER LOOP COIL BYPASS OUTLET WATER NODE
   Branch,3,HOT WATER LOOP DEMAND BRANCH 2,HOT WATER LOOP,Plant Demand,25 ZONE DOAS HTG COIL INLET WATER NODE,25 ZONE DOAS HTG COIL OUTLET WATER NODE
   Branch,4,HOT WATER LOOP DEMAND BRANCH 3,HOT WATER LOOP,Plant Demand,OFFICES_ZN_1_FLR_1 ZN FCU HEATING COIL INLET WATER NODE,OFFICES_ZN_1_FLR_1 ZN FCU HEATING COIL OUTLET WATER NODE
   Branch,5,HOT WATER LOOP DEMAND BRANCH 4,HOT WATER LOOP,Plant Demand,MULT_CLASS_2_POD_2_ZN_1_FLR_1 ZN FCU HEATING COIL INLET WATER NODE,MULT_CLASS_2_POD_2_ZN_1_FLR_1 ZN FCU HEATING COIL OUTLET WATER NODE
   Branch,6,HOT WATER LOOP DEMAND BRANCH 5,HOT WATER LOOP,Plant Demand,MULT_CLASS_2_POD_1_ZN_1_FLR_1 ZN FCU HEATING COIL INLET WATER NODE,MULT_CLASS_2_POD_1_ZN_1_FLR_1 ZN FCU HEATING COIL OUTLET WATER NODE
   Branch,7,HOT WATER LOOP DEMAND BRANCH 6,HOT WATER LOOP,Plant Demand,MULT_CLASS_2_POD_3_ZN_1_FLR_1 ZN FCU HEATING COIL INLET WATER NODE,MULT_CLASS_2_POD_3_ZN_1_FLR_1 ZN FCU HEATING COIL OUTLET WATER NODE
   Branch,8,HOT WATER LOOP DEMAND BRANCH 7,HOT WATER LOOP,Plant Demand,MULT_CLASS_1_POD_1_ZN_1_FLR_1 ZN FCU HEATING COIL INLET WATER NODE,MULT_CLASS_1_POD_1_ZN_1_FLR_1 ZN FCU HEATING COIL OUTLET WATER NODE
   Branch,9,HOT WATER LOOP DEMAND BRANCH 8,HOT WATER LOOP,Plant Demand,BATH_ZN_1_FLR_1 ZN FCU HEATING COIL INLET WATER NODE,BATH_ZN_1_FLR_1 ZN FCU HEATING COIL OUTLET WATER NODE
   Branch,10,HOT WATER LOOP DEMAND BRANCH 9,HOT WATER LOOP,Plant Demand,CORRIDOR_POD_1_ZN_1_FLR_1 ZN FCU HEATING COIL INLET WATER NODE,CORRIDOR_POD_1_ZN_1_FLR_1 ZN FCU HEATING COIL OUTLET WATER NODE
   Branch,11,HOT WATER LOOP DEMAND BRANCH 10,HOT WATER LOOP,Plant Demand,LIBRARY_MEDIA_CENTER_ZN_1_FLR_1 ZN FCU HEATING COIL INLET WATER NODE,LIBRARY_MEDIA_CENTER_ZN_1_FLR_1 ZN FCU HEATING COIL OUTLET WATER NODE
   Branch,12,HOT WATER LOOP DEMAND BRANCH 11,HOT WATER LOOP,Plant Demand,KITCHEN_ZN_1_FLR_1 ZN FCU HEATING COIL INLET WATER NODE,KITCHEN_ZN_1_FLR_1 ZN FCU HEATING COIL OUTLET WATER NODE
   Branch,13,HOT WATER LOOP DEMAND BRANCH 12,HOT WATER LOOP,Plant Demand,LOBBY_ZN_1_FLR_1 ZN FCU HEATING COIL INLET WATER NODE,LOBBY_ZN_1_FLR_1 ZN FCU HEATING COIL OUTLET WATER NODE
   Branch,14,HOT WATER LOOP DEMAND BRANCH 13,HOT WATER LOOP,Plant Demand,COMPUTER_CLASS_ZN_1_FLR_1 ZN FCU HEATING COIL INLET WATER NODE,COMPUTER_CLASS_ZN_1_FLR_1 ZN FCU HEATING COIL OUTLET WATER NODE
   Branch,15,HOT WATER LOOP DEMAND BRANCH 14,HOT WATER LOOP,Plant Demand,CORRIDOR_POD_3_ZN_1_FLR_1 ZN FCU HEATING COIL INLET WATER NODE,CORRIDOR_POD_3_ZN_1_FLR_1 ZN FCU HEATING COIL OUTLET WATER NODE
   Branch,16,HOT WATER LOOP DEMAND BRANCH 15,HOT WATER LOOP,Plant Demand,MECH_ZN_1_FLR_1 ZN FCU HEATING COIL INLET WATER NODE,MECH_ZN_1_FLR_1 ZN FCU HEATING COIL OUTLET WATER NODE
   Branch,17,HOT WATER LOOP DEMAND BRANCH 16,HOT WATER LOOP,Plant Demand,CORNER_CLASS_1_POD_3_ZN_1_FLR_1 ZN FCU HEATING COIL INLET WATER NODE,CORNER_CLASS_1_POD_3_ZN_1_FLR_1 ZN FCU HEATING COIL OUTLET WATER NODE
   Branch,18,HOT WATER LOOP DEMAND BRANCH 17,HOT WATER LOOP,Plant Demand,CAFETERIA_ZN_1_FLR_1 ZN FCU HEATING COIL INLET WATER NODE,CAFETERIA_ZN_1_FLR_1 ZN FCU HEATING COIL OUTLET WATER NODE
   Branch,19,HOT WATER LOOP DEMAND BRANCH 18,HOT WATER LOOP,Plant Demand,CORRIDOR_POD_2_ZN_1_FLR_1 ZN FCU HEATING COIL INLET WATER NODE,CORRIDOR_POD_2_ZN_1_FLR_1 ZN FCU HEATING COIL OUTLET WATER NODE
   Branch,20,HOT WATER LOOP DEMAND BRANCH 19,HOT WATER LOOP,Plant Demand,CORNER_CLASS_2_POD_3_ZN_1_FLR_1 ZN FCU HEATING COIL INLET WATER NODE,CORNER_CLASS_2_POD_3_ZN_1_FLR_1 ZN FCU HEATING COIL OUTLET WATER NODE
   Branch,21,HOT WATER LOOP DEMAND BRANCH 20,HOT WATER LOOP,Plant Demand,CORNER_CLASS_2_POD_2_ZN_1_FLR_1 ZN FCU HEATING COIL INLET WATER NODE,CORNER_CLASS_2_POD_2_ZN_1_FLR_1 ZN FCU HEATING COIL OUTLET WATER NODE
   Branch,22,HOT WATER LOOP DEMAND BRANCH 21,HOT WATER LOOP,Plant Demand,CORNER_CLASS_2_POD_1_ZN_1_FLR_1 ZN FCU HEATING COIL INLET WATER NODE,CORNER_CLASS_2_POD_1_ZN_1_FLR_1 ZN FCU HEATING COIL OUTLET WATER NODE
   Branch,23,HOT WATER LOOP DEMAND BRANCH 22,HOT WATER LOOP,Plant Demand,GYM_ZN_1_FLR_1 ZN FCU HEATING COIL INLET WATER NODE,GYM_ZN_1_FLR_1 ZN FCU HEATING COIL OUTLET WATER NODE
   Branch,24,HOT WATER LOOP DEMAND BRANCH 23,HOT WATER LOOP,Plant Demand,CORNER_CLASS_1_POD_1_ZN_1_FLR_1 ZN FCU HEATING COIL INLET WATER NODE,CORNER_CLASS_1_POD_1_ZN_1_FLR_1 ZN FCU HEATING COIL OUTLET WATER NODE
   Branch,25,HOT WATER LOOP DEMAND BRANCH 24,HOT WATER LOOP,Plant Demand,MULT_CLASS_1_POD_2_ZN_1_FLR_1 ZN FCU HEATING COIL INLET WATER NODE,MULT_CLASS_1_POD_2_ZN_1_FLR_1 ZN FCU HEATING COIL OUTLET WATER NODE
   Branch,26,HOT WATER LOOP DEMAND BRANCH 25,HOT WATER LOOP,Plant Demand,MULT_CLASS_1_POD_3_ZN_1_FLR_1 ZN FCU HEATING COIL INLET WATER NODE,MULT_CLASS_1_POD_3_ZN_1_FLR_1 ZN FCU HEATING COIL OUTLET WATER NODE
   Branch,27,HOT WATER LOOP DEMAND BRANCH 26,HOT WATER LOOP,Plant Demand,MAIN_CORRIDOR_ZN_1_FLR_1 ZN FCU HEATING COIL INLET WATER NODE,MAIN_CORRIDOR_ZN_1_FLR_1 ZN FCU HEATING COIL OUTLET WATER NODE
   Branch,28,HOT WATER LOOP DEMAND BRANCH 27,HOT WATER LOOP,Plant Demand,CORNER_CLASS_1_POD_2_ZN_1_FLR_1 ZN FCU HEATING COIL INLET WATER NODE,CORNER_CLASS_1_POD_2_ZN_1_FLR_1 ZN FCU HEATING COIL OUTLET WATER NODE
   Branch,29,HOT WATER LOOP DEMAND BYPASS BRANCH,HOT WATER LOOP,Plant Demand,HOT WATER LOOP DEMAND BYPASS PIPE INLET NODE,HOT WATER LOOP DEMAND BYPASS PIPE OUTLET NODE
   Branch,30,HOT WATER LOOP DEMAND OUTLET BRANCH,HOT WATER LOOP,Plant Demand,HOT WATER LOOP DEMAND OUTLET INLET WATER NODE,HOT WATER LOOP DEMAND OUTLET NODE
 Branch List,8,MAIN SERVICE WATER LOOP SUPPLY BRANCHES,MAIN SERVICE WATER LOOP,Plant Supply,4
   Branch,1,MAIN SERVICE WATER LOOP SUPPLY INLET BRANCH,MAIN SERVICE WATER LOOP,Plant Supply,MAIN SERVICE WATER LOOP SUPPLY INLET NODE,SERVICE WATER LOOP PUMP OUTLET WATER NODE
   Branch,2,MAIN SERVICE WATER LOOP SUPPLY BRANCH 1,MAIN SERVICE WATER LOOP,Plant Supply,200GAL NATURAL GAS WATER HEATER - 200KBTU/HR 0.802 THERM EFF SUPPLY INLET WATER NODE,200GAL NATURAL GAS WATER HEATER - 200KBTU/HR 0.802 THERM EFF SUPPLY OUTLET WATER NODE
   Branch,3,MAIN SERVICE WATER LOOP SUPPLY BRANCH 2,MAIN SERVICE WATER LOOP,Plant Supply,PIPE ADIABATIC 6 INLET WATER NODE,PIPE ADIABATIC 6 OUTLET WATER NODE
   Branch,4,MAIN SERVICE WATER LOOP SUPPLY OUTLET BRANCH,MAIN SERVICE WATER LOOP,Plant Supply,PIPE ADIABATIC 8 INLET WATER NODE,MAIN SERVICE WATER LOOP SUPPLY OUTLET NODE
 Branch List,9,MAIN SERVICE WATER LOOP DEMAND BRANCHES,MAIN SERVICE WATER LOOP,Plant Demand,6
   Branch,1,MAIN SERVICE WATER LOOP DEMAND INLET BRANCH,MAIN SERVICE WATER LOOP,Plant Demand,MAIN SERVICE WATER LOOP DEMAND INLET NODE,PIPE ADIABATIC 9 OUTLET WATER NODE
   Branch,2,MAIN SERVICE WATER LOOP DEMAND BRANCH 1,MAIN SERVICE WATER LOOP,Plant Demand,PIPE ADIABATIC 7 INLET WATER NODE,PIPE ADIABATIC 7 OUTLET WATER NODE
   Branch,3,MAIN SERVICE WATER LOOP DEMAND BRANCH 2,MAIN SERVICE WATER LOOP,Plant Demand,WATER USE CONNECTIONS 1 INLET WATER NODE,WATER USE CONNECTIONS 1 OUTLET WATER NODE
   Branch,4,MAIN SERVICE WATER LOOP DEMAND BRANCH 3,MAIN SERVICE WATER LOOP,Plant Demand,HX FOR BOOSTER WATER HEATING DEMAND INLET WATER NODE,HX FOR BOOSTER WATER HEATING DEMAND OUTLET WATER NODE
   Branch,5,MAIN SERVICE WATER LOOP DEMAND BYPASS BRANCH,MAIN SERVICE WATER LOOP,Plant Demand,MAIN SERVICE WATER LOOP DEMAND BYPASS PIPE INLET NODE,MAIN SERVICE WATER LOOP DEMAND BYPASS PIPE OUTLET NODE
   Branch,6,MAIN SERVICE WATER LOOP DEMAND OUTLET BRANCH,MAIN SERVICE WATER LOOP,Plant Demand,PIPE ADIABATIC 10 INLET WATER NODE,MAIN SERVICE WATER LOOP DEMAND OUTLET NODE
 Branch List,10,SERVICE WATER LOOP SUPPLY BRANCHES,SERVICE WATER LOOP,Plant Supply,4
   Branch,1,SERVICE WATER LOOP SUPPLY INLET BRANCH,SERVICE WATER LOOP,Plant Supply,SERVICE WATER LOOP SUPPLY INLET NODE,BOOSTER WATER LOOP PUMP OUTLET WATER NODE
   Branch,2,SERVICE WATER LOOP SUPPLY BRANCH 1,SERVICE WATER LOOP,Plant Supply,6.0GAL ELECTRICITY BOOSTER WATER HEATER - 20KBTU/HR 1.0 THERM EFF SUPPLY INLET WATER NODE,6.0GAL ELECTRICITY BOOSTER WATER HEATER - 20KBTU/HR 1.0 THERM EFF SUPPLY OUTLET WATER NODE
   Branch,3,SERVICE WATER LOOP SUPPLY BRANCH 2,SERVICE WATER LOOP,Plant Supply,PIPE ADIABATIC 11 INLET WATER NODE,PIPE ADIABATIC 11 OUTLET WATER NODE
   Branch,4,SERVICE WATER LOOP SUPPLY OUTLET BRANCH,SERVICE WATER LOOP,Plant Supply,PIPE ADIABATIC 13 INLET WATER NODE,SERVICE WATER LOOP SUPPLY OUTLET NODE
 Branch List,11,SERVICE WATER LOOP DEMAND BRANCHES,SERVICE WATER LOOP,Plant Demand,5
   Branch,1,SERVICE WATER LOOP DEMAND INLET BRANCH,SERVICE WATER LOOP,Plant Demand,SERVICE WATER LOOP DEMAND INLET NODE,PIPE ADIABATIC 14 OUTLET WATER NODE
   Branch,2,SERVICE WATER LOOP DEMAND BRANCH 1,SERVICE WATER LOOP,Plant Demand,PIPE ADIABATIC 12 INLET WATER NODE,PIPE ADIABATIC 12 OUTLET WATER NODE
   Branch,3,SERVICE WATER LOOP DEMAND BRANCH 2,SERVICE WATER LOOP,Plant Demand,WATER USE CONNECTIONS 2 INLET WATER NODE,WATER USE CONNECTIONS 2 OUTLET WATER NODE
   Branch,4,SERVICE WATER LOOP DEMAND BYPASS BRANCH,SERVICE WATER LOOP,Plant Demand,SERVICE WATER LOOP DEMAND BYPASS PIPE INLET NODE,SERVICE WATER LOOP DEMAND BYPASS PIPE OUTLET NODE
   Branch,5,SERVICE WATER LOOP DEMAND OUTLET BRANCH,SERVICE WATER LOOP,Plant Demand,PIPE ADIABATIC 15 INLET WATER NODE,SERVICE WATER LOOP DEMAND OUTLET NODE
! ===============================================================
! <#Supply Air Paths>,<Number of Supply Air Paths>
 #Supply Air Paths,1
! <Supply Air Path>,<Supply Air Path Count>,<Supply Air Path Name>,<AirLoopHVAC Name>
! <#Components on Supply Air Path>,<Number of Components>
! <Supply Air Path Component>,<Component Count>,<Component Type>,<Component Name>,<AirLoopHVAC Name>
! <#Outlet Nodes on Supply Air Path Component>,<Number of Nodes>
! <Supply Air Path Component Nodes>,<Node Count>,<Component Type>,<Component Name>,<Inlet Node Name>,<Outlet Node Name>,<AirLoopHVAC Name>
 Supply Air Path,1,25 ZONE DOAS 25 ZONE DOAS DEMAND INLET NODE SUPPLY PATH,25 ZONE DOAS
   #Components on Supply Air Path,1
   Supply Air Path Component,1,AIRLOOPHVAC:ZONESPLITTER,AIR LOOP HVAC ZONE SPLITTER 1,25 ZONE DOAS
     #Outlet Nodes on Supply Air Path Component,25
     Supply Air Path Component Nodes,1,AIRLOOPHVAC:ZONESPLITTER,AIR LOOP HVAC ZONE SPLITTER 1,25 ZONE DOAS DEMAND INLET NODE,OFFICES_ZN_1_FLR_1 ZN AIR TERMINAL INLET AIR NODE,25 ZONE DOAS
     Supply Air Path Component Nodes,2,AIRLOOPHVAC:ZONESPLITTER,AIR LOOP HVAC ZONE SPLITTER 1,25 ZONE DOAS DEMAND INLET NODE,MULT_CLASS_2_POD_2_ZN_1_FLR_1 ZN AIR TERMINAL INLET AIR NODE,25 ZONE DOAS
     Supply Air Path Component Nodes,3,AIRLOOPHVAC:ZONESPLITTER,AIR LOOP HVAC ZONE SPLITTER 1,25 ZONE DOAS DEMAND INLET NODE,MULT_CLASS_2_POD_1_ZN_1_FLR_1 ZN AIR TERMINAL INLET AIR NODE,25 ZONE DOAS
     Supply Air Path Component Nodes,4,AIRLOOPHVAC:ZONESPLITTER,AIR LOOP HVAC ZONE SPLITTER 1,25 ZONE DOAS DEMAND INLET NODE,MULT_CLASS_2_POD_3_ZN_1_FLR_1 ZN AIR TERMINAL INLET AIR NODE,25 ZONE DOAS
     Supply Air Path Component Nodes,5,AIRLOOPHVAC:ZONESPLITTER,AIR LOOP HVAC ZONE SPLITTER 1,25 ZONE DOAS DEMAND INLET NODE,MULT_CLASS_1_POD_1_ZN_1_FLR_1 ZN AIR TERMINAL INLET AIR NODE,25 ZONE DOAS
     Supply Air Path Component Nodes,6,AIRLOOPHVAC:ZONESPLITTER,AIR LOOP HVAC ZONE SPLITTER 1,25 ZONE DOAS DEMAND INLET NODE,BATH_ZN_1_FLR_1 ZN AIR TERMINAL INLET AIR NODE,25 ZONE DOAS
     Supply Air Path Component Nodes,7,AIRLOOPHVAC:ZONESPLITTER,AIR LOOP HVAC ZONE SPLITTER 1,25 ZONE DOAS DEMAND INLET NODE,CORRIDOR_POD_1_ZN_1_FLR_1 ZN AIR TERMINAL INLET AIR NODE,25 ZONE DOAS
     Supply Air Path Component Nodes,8,AIRLOOPHVAC:ZONESPLITTER,AIR LOOP HVAC ZONE SPLITTER 1,25 ZONE DOAS DEMAND INLET NODE,LIBRARY_MEDIA_CENTER_ZN_1_FLR_1 ZN AIR TERMINAL INLET AIR NODE,25 ZONE DOAS
     Supply Air Path Component Nodes,9,AIRLOOPHVAC:ZONESPLITTER,AIR LOOP HVAC ZONE SPLITTER 1,25 ZONE DOAS DEMAND INLET NODE,KITCHEN_ZN_1_FLR_1 ZN AIR TERMINAL INLET AIR NODE,25 ZONE DOAS
     Supply Air Path Component Nodes,10,AIRLOOPHVAC:ZONESPLITTER,AIR LOOP HVAC ZONE SPLITTER 1,25 ZONE DOAS DEMAND INLET NODE,LOBBY_ZN_1_FLR_1 ZN AIR TERMINAL INLET AIR NODE,25 ZONE DOAS
     Supply Air Path Component Nodes,11,AIRLOOPHVAC:ZONESPLITTER,AIR LOOP HVAC ZONE SPLITTER 1,25 ZONE DOAS DEMAND INLET NODE,COMPUTER_CLASS_ZN_1_FLR_1 ZN AIR TERMINAL INLET AIR NODE,25 ZONE DOAS
     Supply Air Path Component Nodes,12,AIRLOOPHVAC:ZONESPLITTER,AIR LOOP HVAC ZONE SPLITTER 1,25 ZONE DOAS DEMAND INLET NODE,CORRIDOR_POD_3_ZN_1_FLR_1 ZN AIR TERMINAL INLET AIR NODE,25 ZONE DOAS
     Supply Air Path Component Nodes,13,AIRLOOPHVAC:ZONESPLITTER,AIR LOOP HVAC ZONE SPLITTER 1,25 ZONE DOAS DEMAND INLET NODE,MECH_ZN_1_FLR_1 ZN AIR TERMINAL INLET AIR NODE,25 ZONE DOAS
     Supply Air Path Component Nodes,14,AIRLOOPHVAC:ZONESPLITTER,AIR LOOP HVAC ZONE SPLITTER 1,25 ZONE DOAS DEMAND INLET NODE,CORNER_CLASS_1_POD_3_ZN_1_FLR_1 ZN AIR TERMINAL INLET AIR NODE,25 ZONE DOAS
     Supply Air Path Component Nodes,15,AIRLOOPHVAC:ZONESPLITTER,AIR LOOP HVAC ZONE SPLITTER 1,25 ZONE DOAS DEMAND INLET NODE,CAFETERIA_ZN_1_FLR_1 ZN AIR TERMINAL INLET AIR NODE,25 ZONE DOAS
     Supply Air Path Component Nodes,16,AIRLOOPHVAC:ZONESPLITTER,AIR LOOP HVAC ZONE SPLITTER 1,25 ZONE DOAS DEMAND INLET NODE,CORRIDOR_POD_2_ZN_1_FLR_1 ZN AIR TERMINAL INLET AIR NODE,25 ZONE DOAS
     Supply Air Path Component Nodes,17,AIRLOOPHVAC:ZONESPLITTER,AIR LOOP HVAC ZONE SPLITTER 1,25 ZONE DOAS DEMAND INLET NODE,CORNER_CLASS_2_POD_3_ZN_1_FLR_1 ZN AIR TERMINAL INLET AIR NODE,25 ZONE DOAS
     Supply Air Path Component Nodes,18,AIRLOOPHVAC:ZONESPLITTER,AIR LOOP HVAC ZONE SPLITTER 1,25 ZONE DOAS DEMAND INLET NODE,CORNER_CLASS_2_POD_2_ZN_1_FLR_1 ZN AIR TERMINAL INLET AIR NODE,25 ZONE DOAS
     Supply Air Path Component Nodes,19,AIRLOOPHVAC:ZONESPLITTER,AIR LOOP HVAC ZONE SPLITTER 1,25 ZONE DOAS DEMAND INLET NODE,CORNER_CLASS_2_POD_1_ZN_1_FLR_1 ZN AIR TERMINAL INLET AIR NODE,25 ZONE DOAS
     Supply Air Path Component Nodes,20,AIRLOOPHVAC:ZONESPLITTER,AIR LOOP HVAC ZONE SPLITTER 1,25 ZONE DOAS DEMAND INLET NODE,GYM_ZN_1_FLR_1 ZN AIR TERMINAL INLET AIR NODE,25 ZONE DOAS
     Supply Air Path Component Nodes,21,AIRLOOPHVAC:ZONESPLITTER,AIR LOOP HVAC ZONE SPLITTER 1,25 ZONE DOAS DEMAND INLET NODE,CORNER_CLASS_1_POD_1_ZN_1_FLR_1 ZN AIR TERMINAL INLET AIR NODE,25 ZONE DOAS
     Supply Air Path Component Nodes,22,AIRLOOPHVAC:ZONESPLITTER,AIR LOOP HVAC ZONE SPLITTER 1,25 ZONE DOAS DEMAND INLET NODE,MULT_CLASS_1_POD_2_ZN_1_FLR_1 ZN AIR TERMINAL INLET AIR NODE,25 ZONE DOAS
     Supply Air Path Component Nodes,23,AIRLOOPHVAC:ZONESPLITTER,AIR LOOP HVAC ZONE SPLITTER 1,25 ZONE DOAS DEMAND INLET NODE,MULT_CLASS_1_POD_3_ZN_1_FLR_1 ZN AIR TERMINAL INLET AIR NODE,25 ZONE DOAS
     Supply Air Path Component Nodes,24,AIRLOOPHVAC:ZONESPLITTER,AIR LOOP HVAC ZONE SPLITTER 1,25 ZONE DOAS DEMAND INLET NODE,MAIN_CORRIDOR_ZN_1_FLR_1 ZN AIR TERMINAL INLET AIR NODE,25 ZONE DOAS
     Supply Air Path Component Nodes,25,AIRLOOPHVAC:ZONESPLITTER,AIR LOOP HVAC ZONE SPLITTER 1,25 ZONE DOAS DEMAND INLET NODE,CORNER_CLASS_1_POD_2_ZN_1_FLR_1 ZN AIR TERMINAL INLET AIR NODE,25 ZONE DOAS
! <#Nodes on Supply Air Path>,<Number of Nodes>
! <Supply Air Path Node>,<Node Type>,<Node Count>,<Node Name>,<AirLoopHVAC Name>
#Nodes on Supply Air Path,26
   Supply Air Path Node,Inlet Node,1,25 ZONE DOAS DEMAND INLET NODE,25 ZONE DOAS
   Supply Air Path Node,Outlet Node,2,OFFICES_ZN_1_FLR_1 ZN AIR TERMINAL INLET AIR NODE,25 ZONE DOAS
   Supply Air Path Node,Outlet Node,3,MULT_CLASS_2_POD_2_ZN_1_FLR_1 ZN AIR TERMINAL INLET AIR NODE,25 ZONE DOAS
   Supply Air Path Node,Outlet Node,4,MULT_CLASS_2_POD_1_ZN_1_FLR_1 ZN AIR TERMINAL INLET AIR NODE,25 ZONE DOAS
   Supply Air Path Node,Outlet Node,5,MULT_CLASS_2_POD_3_ZN_1_FLR_1 ZN AIR TERMINAL INLET AIR NODE,25 ZONE DOAS
   Supply Air Path Node,Outlet Node,6,MULT_CLASS_1_POD_1_ZN_1_FLR_1 ZN AIR TERMINAL INLET AIR NODE,25 ZONE DOAS
   Supply Air Path Node,Outlet Node,7,BATH_ZN_1_FLR_1 ZN AIR TERMINAL INLET AIR NODE,25 ZONE DOAS
   Supply Air Path Node,Outlet Node,8,CORRIDOR_POD_1_ZN_1_FLR_1 ZN AIR TERMINAL INLET AIR NODE,25 ZONE DOAS
   Supply Air Path Node,Outlet Node,9,LIBRARY_MEDIA_CENTER_ZN_1_FLR_1 ZN AIR TERMINAL INLET AIR NODE,25 ZONE DOAS
   Supply Air Path Node,Outlet Node,10,KITCHEN_ZN_1_FLR_1 ZN AIR TERMINAL INLET AIR NODE,25 ZONE DOAS
   Supply Air Path Node,Outlet Node,11,LOBBY_ZN_1_FLR_1 ZN AIR TERMINAL INLET AIR NODE,25 ZONE DOAS
   Supply Air Path Node,Outlet Node,12,COMPUTER_CLASS_ZN_1_FLR_1 ZN AIR TERMINAL INLET AIR NODE,25 ZONE DOAS
   Supply Air Path Node,Outlet Node,13,CORRIDOR_POD_3_ZN_1_FLR_1 ZN AIR TERMINAL INLET AIR NODE,25 ZONE DOAS
   Supply Air Path Node,Outlet Node,14,MECH_ZN_1_FLR_1 ZN AIR TERMINAL INLET AIR NODE,25 ZONE DOAS
   Supply Air Path Node,Outlet Node,15,CORNER_CLASS_1_POD_3_ZN_1_FLR_1 ZN AIR TERMINAL INLET AIR NODE,25 ZONE DOAS
   Supply Air Path Node,Outlet Node,16,CAFETERIA_ZN_1_FLR_1 ZN AIR TERMINAL INLET AIR NODE,25 ZONE DOAS
   Supply Air Path Node,Outlet Node,17,CORRIDOR_POD_2_ZN_1_FLR_1 ZN AIR TERMINAL INLET AIR NODE,25 ZONE DOAS
   Supply Air Path Node,Outlet Node,18,CORNER_CLASS_2_POD_3_ZN_1_FLR_1 ZN AIR TERMINAL INLET AIR NODE,25 ZONE DOAS
   Supply Air Path Node,Outlet Node,19,CORNER_CLASS_2_POD_2_ZN_1_FLR_1 ZN AIR TERMINAL INLET AIR NODE,25 ZONE DOAS
   Supply Air Path Node,Outlet Node,20,CORNER_CLASS_2_POD_1_ZN_1_FLR_1 ZN AIR TERMINAL INLET AIR NODE,25 ZONE DOAS
   Supply Air Path Node,Outlet Node,21,GYM_ZN_1_FLR_1 ZN AIR TERMINAL INLET AIR NODE,25 ZONE DOAS
   Supply Air Path Node,Outlet Node,22,CORNER_CLASS_1_POD_1_ZN_1_FLR_1 ZN AIR TERMINAL INLET AIR NODE,25 ZONE DOAS
   Supply Air Path Node,Outlet Node,23,MULT_CLASS_1_POD_2_ZN_1_FLR_1 ZN AIR TERMINAL INLET AIR NODE,25 ZONE DOAS
   Supply Air Path Node,Outlet Node,24,MULT_CLASS_1_POD_3_ZN_1_FLR_1 ZN AIR TERMINAL INLET AIR NODE,25 ZONE DOAS
   Supply Air Path Node,Outlet Node,25,MAIN_CORRIDOR_ZN_1_FLR_1 ZN AIR TERMINAL INLET AIR NODE,25 ZONE DOAS
   Supply Air Path Node,Outlet Node,26,CORNER_CLASS_1_POD_2_ZN_1_FLR_1 ZN AIR TERMINAL INLET AIR NODE,25 ZONE DOAS
! ===============================================================
! <#Return Air Paths>,<Number of Return Air Paths>
 #Return Air Paths,1
! <Return Air Path>,<Return Air Path Count>,<Return Air Path Name>,<AirLoopHVAC Name>
! <#Components on Return Air Path>,<Number of Components>
! <Return Air Path Component>,<Component Count>,<Component Type>,<Component Name>,<AirLoopHVAC Name>
! <#Inlet Nodes on Return Air Path Component>,<Number of Nodes>
! <Return Air Path Component Nodes>,<Node Count>,<Component Type>,<Component Name>,<Inlet Node Name>,<Outlet Node Name>,<AirLoopHVAC Name>
 Return Air Path,1,25 ZONE DOAS RETURN PATH,25 ZONE DOAS
   #Components on Return Air Path,1
   Return Air Path Component,1,AIRLOOPHVAC:ZONEMIXER,AIR LOOP HVAC ZONE MIXER 1,25 ZONE DOAS
     #Inlet Nodes on Return Air Path Component,25
     Return Air Path Component Nodes,1,AIRLOOPHVAC:ZONEMIXER,AIR LOOP HVAC ZONE MIXER 1,OFFICES_ZN_1_FLR_1 ZN RETURN AIR NODE,25 ZONE DOAS DEMAND OUTLET NODE,25 ZONE DOAS
     Return Air Path Component Nodes,2,AIRLOOPHVAC:ZONEMIXER,AIR LOOP HVAC ZONE MIXER 1,MULT_CLASS_2_POD_2_ZN_1_FLR_1 ZN RETURN AIR NODE,25 ZONE DOAS DEMAND OUTLET NODE,25 ZONE DOAS
     Return Air Path Component Nodes,3,AIRLOOPHVAC:ZONEMIXER,AIR LOOP HVAC ZONE MIXER 1,MULT_CLASS_2_POD_1_ZN_1_FLR_1 ZN RETURN AIR NODE,25 ZONE DOAS DEMAND OUTLET NODE,25 ZONE DOAS
     Return Air Path Component Nodes,4,AIRLOOPHVAC:ZONEMIXER,AIR LOOP HVAC ZONE MIXER 1,MULT_CLASS_2_POD_3_ZN_1_FLR_1 ZN RETURN AIR NODE,25 ZONE DOAS DEMAND OUTLET NODE,25 ZONE DOAS
     Return Air Path Component Nodes,5,AIRLOOPHVAC:ZONEMIXER,AIR LOOP HVAC ZONE MIXER 1,MULT_CLASS_1_POD_1_ZN_1_FLR_1 ZN RETURN AIR NODE,25 ZONE DOAS DEMAND OUTLET NODE,25 ZONE DOAS
     Return Air Path Component Nodes,6,AIRLOOPHVAC:ZONEMIXER,AIR LOOP HVAC ZONE MIXER 1,BATH_ZN_1_FLR_1 ZN RETURN AIR NODE,25 ZONE DOAS DEMAND OUTLET NODE,25 ZONE DOAS
     Return Air Path Component Nodes,7,AIRLOOPHVAC:ZONEMIXER,AIR LOOP HVAC ZONE MIXER 1,CORRIDOR_POD_1_ZN_1_FLR_1 ZN RETURN AIR NODE,25 ZONE DOAS DEMAND OUTLET NODE,25 ZONE DOAS
     Return Air Path Component Nodes,8,AIRLOOPHVAC:ZONEMIXER,AIR LOOP HVAC ZONE MIXER 1,LIBRARY_MEDIA_CENTER_ZN_1_FLR_1 ZN RETURN AIR NODE,25 ZONE DOAS DEMAND OUTLET NODE,25 ZONE DOAS
     Return Air Path Component Nodes,9,AIRLOOPHVAC:ZONEMIXER,AIR LOOP HVAC ZONE MIXER 1,KITCHEN_ZN_1_FLR_1 ZN RETURN AIR NODE,25 ZONE DOAS DEMAND OUTLET NODE,25 ZONE DOAS
     Return Air Path Component Nodes,10,AIRLOOPHVAC:ZONEMIXER,AIR LOOP HVAC ZONE MIXER 1,LOBBY_ZN_1_FLR_1 ZN RETURN AIR NODE,25 ZONE DOAS DEMAND OUTLET NODE,25 ZONE DOAS
     Return Air Path Component Nodes,11,AIRLOOPHVAC:ZONEMIXER,AIR LOOP HVAC ZONE MIXER 1,COMPUTER_CLASS_ZN_1_FLR_1 ZN RETURN AIR NODE,25 ZONE DOAS DEMAND OUTLET NODE,25 ZONE DOAS
     Return Air Path Component Nodes,12,AIRLOOPHVAC:ZONEMIXER,AIR LOOP HVAC ZONE MIXER 1,CORRIDOR_POD_3_ZN_1_FLR_1 ZN RETURN AIR NODE,25 ZONE DOAS DEMAND OUTLET NODE,25 ZONE DOAS
     Return Air Path Component Nodes,13,AIRLOOPHVAC:ZONEMIXER,AIR LOOP HVAC ZONE MIXER 1,MECH_ZN_1_FLR_1 ZN RETURN AIR NODE,25 ZONE DOAS DEMAND OUTLET NODE,25 ZONE DOAS
     Return Air Path Component Nodes,14,AIRLOOPHVAC:ZONEMIXER,AIR LOOP HVAC ZONE MIXER 1,CORNER_CLASS_1_POD_3_ZN_1_FLR_1 ZN RETURN AIR NODE,25 ZONE DOAS DEMAND OUTLET NODE,25 ZONE DOAS
     Return Air Path Component Nodes,15,AIRLOOPHVAC:ZONEMIXER,AIR LOOP HVAC ZONE MIXER 1,CAFETERIA_ZN_1_FLR_1 ZN RETURN AIR NODE,25 ZONE DOAS DEMAND OUTLET NODE,25 ZONE DOAS
     Return Air Path Component Nodes,16,AIRLOOPHVAC:ZONEMIXER,AIR LOOP HVAC ZONE MIXER 1,CORRIDOR_POD_2_ZN_1_FLR_1 ZN RETURN AIR NODE,25 ZONE DOAS DEMAND OUTLET NODE,25 ZONE DOAS
     Return Air Path Component Nodes,17,AIRLOOPHVAC:ZONEMIXER,AIR LOOP HVAC ZONE MIXER 1,CORNER_CLASS_2_POD_3_ZN_1_FLR_1 ZN RETURN AIR NODE,25 ZONE DOAS DEMAND OUTLET NODE,25 ZONE DOAS
     Return Air Path Component Nodes,18,AIRLOOPHVAC:ZONEMIXER,AIR LOOP HVAC ZONE MIXER 1,CORNER_CLASS_2_POD_2_ZN_1_FLR_1 ZN RETURN AIR NODE,25 ZONE DOAS DEMAND OUTLET NODE,25 ZONE DOAS
     Return Air Path Component Nodes,19,AIRLOOPHVAC:ZONEMIXER,AIR LOOP HVAC ZONE MIXER 1,CORNER_CLASS_2_POD_1_ZN_1_FLR_1 ZN RETURN AIR NODE,25 ZONE DOAS DEMAND OUTLET NODE,25 ZONE DOAS
     Return Air Path Component Nodes,20,AIRLOOPHVAC:ZONEMIXER,AIR LOOP HVAC ZONE MIXER 1,GYM_ZN_1_FLR_1 ZN RETURN AIR NODE,25 ZONE DOAS DEMAND OUTLET NODE,25 ZONE DOAS
     Return Air Path Component Nodes,21,AIRLOOPHVAC:ZONEMIXER,AIR LOOP HVAC ZONE MIXER 1,CORNER_CLASS_1_POD_1_ZN_1_FLR_1 ZN RETURN AIR NODE,25 ZONE DOAS DEMAND OUTLET NODE,25 ZONE DOAS
     Return Air Path Component Nodes,22,AIRLOOPHVAC:ZONEMIXER,AIR LOOP HVAC ZONE MIXER 1,MULT_CLASS_1_POD_2_ZN_1_FLR_1 ZN RETURN AIR NODE,25 ZONE DOAS DEMAND OUTLET NODE,25 ZONE DOAS
     Return Air Path Component Nodes,23,AIRLOOPHVAC:ZONEMIXER,AIR LOOP HVAC ZONE MIXER 1,MULT_CLASS_1_POD_3_ZN_1_FLR_1 ZN RETURN AIR NODE,25 ZONE DOAS DEMAND OUTLET NODE,25 ZONE DOAS
     Return Air Path Component Nodes,24,AIRLOOPHVAC:ZONEMIXER,AIR LOOP HVAC ZONE MIXER 1,MAIN_CORRIDOR_ZN_1_FLR_1 ZN RETURN AIR NODE,25 ZONE DOAS DEMAND OUTLET NODE,25 ZONE DOAS
     Return Air Path Component Nodes,25,AIRLOOPHVAC:ZONEMIXER,AIR LOOP HVAC ZONE MIXER 1,CORNER_CLASS_1_POD_2_ZN_1_FLR_1 ZN RETURN AIR NODE,25 ZONE DOAS DEMAND OUTLET NODE,25 ZONE DOAS
! <#Nodes on Return Air Path>,<Number of Nodes>
! <Return Air Path Node>,<Node Type>,<Node Count>,<Node Name>,<AirLoopHVAC Name>
   #Nodes on Return Air Path,26
   Return Air Path Node,Outlet Node,1,25 ZONE DOAS DEMAND OUTLET NODE,25 ZONE DOAS
   Return Air Path Node,Inlet Node,2,OFFICES_ZN_1_FLR_1 ZN RETURN AIR NODE,25 ZONE DOAS
   Return Air Path Node,Inlet Node,3,MULT_CLASS_2_POD_2_ZN_1_FLR_1 ZN RETURN AIR NODE,25 ZONE DOAS
   Return Air Path Node,Inlet Node,4,MULT_CLASS_2_POD_1_ZN_1_FLR_1 ZN RETURN AIR NODE,25 ZONE DOAS
   Return Air Path Node,Inlet Node,5,MULT_CLASS_2_POD_3_ZN_1_FLR_1 ZN RETURN AIR NODE,25 ZONE DOAS
   Return Air Path Node,Inlet Node,6,MULT_CLASS_1_POD_1_ZN_1_FLR_1 ZN RETURN AIR NODE,25 ZONE DOAS
   Return Air Path Node,Inlet Node,7,BATH_ZN_1_FLR_1 ZN RETURN AIR NODE,25 ZONE DOAS
   Return Air Path Node,Inlet Node,8,CORRIDOR_POD_1_ZN_1_FLR_1 ZN RETURN AIR NODE,25 ZONE DOAS
   Return Air Path Node,Inlet Node,9,LIBRARY_MEDIA_CENTER_ZN_1_FLR_1 ZN RETURN AIR NODE,25 ZONE DOAS
   Return Air Path Node,Inlet Node,10,KITCHEN_ZN_1_FLR_1 ZN RETURN AIR NODE,25 ZONE DOAS
   Return Air Path Node,Inlet Node,11,LOBBY_ZN_1_FLR_1 ZN RETURN AIR NODE,25 ZONE DOAS
   Return Air Path Node,Inlet Node,12,COMPUTER_CLASS_ZN_1_FLR_1 ZN RETURN AIR NODE,25 ZONE DOAS
   Return Air Path Node,Inlet Node,13,CORRIDOR_POD_3_ZN_1_FLR_1 ZN RETURN AIR NODE,25 ZONE DOAS
   Return Air Path Node,Inlet Node,14,MECH_ZN_1_FLR_1 ZN RETURN AIR NODE,25 ZONE DOAS
   Return Air Path Node,Inlet Node,15,CORNER_CLASS_1_POD_3_ZN_1_FLR_1 ZN RETURN AIR NODE,25 ZONE DOAS
   Return Air Path Node,Inlet Node,16,CAFETERIA_ZN_1_FLR_1 ZN RETURN AIR NODE,25 ZONE DOAS
   Return Air Path Node,Inlet Node,17,CORRIDOR_POD_2_ZN_1_FLR_1 ZN RETURN AIR NODE,25 ZONE DOAS
   Return Air Path Node,Inlet Node,18,CORNER_CLASS_2_POD_3_ZN_1_FLR_1 ZN RETURN AIR NODE,25 ZONE DOAS
   Return Air Path Node,Inlet Node,19,CORNER_CLASS_2_POD_2_ZN_1_FLR_1 ZN RETURN AIR NODE,25 ZONE DOAS
   Return Air Path Node,Inlet Node,20,CORNER_CLASS_2_POD_1_ZN_1_FLR_1 ZN RETURN AIR NODE,25 ZONE DOAS
   Return Air Path Node,Inlet Node,21,GYM_ZN_1_FLR_1 ZN RETURN AIR NODE,25 ZONE DOAS
   Return Air Path Node,Inlet Node,22,CORNER_CLASS_1_POD_1_ZN_1_FLR_1 ZN RETURN AIR NODE,25 ZONE DOAS
   Return Air Path Node,Inlet Node,23,MULT_CLASS_1_POD_2_ZN_1_FLR_1 ZN RETURN AIR NODE,25 ZONE DOAS
   Return Air Path Node,Inlet Node,24,MULT_CLASS_1_POD_3_ZN_1_FLR_1 ZN RETURN AIR NODE,25 ZONE DOAS
   Return Air Path Node,Inlet Node,25,MAIN_CORRIDOR_ZN_1_FLR_1 ZN RETURN AIR NODE,25 ZONE DOAS
   Return Air Path Node,Inlet Node,26,CORNER_CLASS_1_POD_2_ZN_1_FLR_1 ZN RETURN AIR NODE,25 ZONE DOAS
! ===============================================================
! #Outdoor Air Nodes,<Number of Outdoor Air Nodes>
 #Outdoor Air Nodes,27
! <Outdoor Air Node>,<NodeNumber>,<Node Name>
 Outdoor Air Node,330,BATH_ZN_1_FLR_1 ZN FCU OA NODE
 Outdoor Air Node,331,CAFETERIA_ZN_1_FLR_1 ZN FCU OA NODE
 Outdoor Air Node,332,COMPUTER_CLASS_ZN_1_FLR_1 ZN FCU OA NODE
 Outdoor Air Node,333,CORNER_CLASS_1_POD_1_ZN_1_FLR_1 ZN FCU OA NODE
 Outdoor Air Node,334,CORNER_CLASS_1_POD_2_ZN_1_FLR_1 ZN FCU OA NODE
 Outdoor Air Node,335,CORNER_CLASS_1_POD_3_ZN_1_FLR_1 ZN FCU OA NODE
 Outdoor Air Node,336,CORNER_CLASS_2_POD_1_ZN_1_FLR_1 ZN FCU OA NODE
 Outdoor Air Node,337,CORNER_CLASS_2_POD_2_ZN_1_FLR_1 ZN FCU OA NODE
 Outdoor Air Node,338,CORNER_CLASS_2_POD_3_ZN_1_FLR_1 ZN FCU OA NODE
 Outdoor Air Node,339,CORRIDOR_POD_1_ZN_1_FLR_1 ZN FCU OA NODE
 Outdoor Air Node,340,CORRIDOR_POD_2_ZN_1_FLR_1 ZN FCU OA NODE
 Outdoor Air Node,341,CORRIDOR_POD_3_ZN_1_FLR_1 ZN FCU OA NODE
 Outdoor Air Node,342,GYM_ZN_1_FLR_1 ZN FCU OA NODE
 Outdoor Air Node,343,KITCHEN_ZN_1_FLR_1 ZN FCU OA NODE
 Outdoor Air Node,344,LIBRARY_MEDIA_CENTER_ZN_1_FLR_1 ZN FCU OA NODE
 Outdoor Air Node,345,LOBBY_ZN_1_FLR_1 ZN FCU OA NODE
 Outdoor Air Node,346,MAIN_CORRIDOR_ZN_1_FLR_1 ZN FCU OA NODE
 Outdoor Air Node,347,MECH_ZN_1_FLR_1 ZN FCU OA NODE
 Outdoor Air Node,348,MULT_CLASS_1_POD_1_ZN_1_FLR_1 ZN FCU OA NODE
 Outdoor Air Node,349,MULT_CLASS_1_POD_2_ZN_1_FLR_1 ZN FCU OA NODE
 Outdoor Air Node,350,MULT_CLASS_1_POD_3_ZN_1_FLR_1 ZN FCU OA NODE
 Outdoor Air Node,351,MULT_CLASS_2_POD_1_ZN_1_FLR_1 ZN FCU OA NODE
 Outdoor Air Node,352,MULT_CLASS_2_POD_2_ZN_1_FLR_1 ZN FCU OA NODE
 Outdoor Air Node,353,MULT_CLASS_2_POD_3_ZN_1_FLR_1 ZN FCU OA NODE
 Outdoor Air Node,354,OFFICES_ZN_1_FLR_1 ZN FCU OA NODE
 Outdoor Air Node,355,25 ZONE DOAS OUTDOOR AIR NODE
 Outdoor Air Node,356,MODEL OUTDOOR AIR NODE
! ===============================================================
! <#Component Sets>,<Number of Component Sets>
 #Component Sets,230
! <Component Set>,<Component Set Count>,<Parent Object Type>,<Parent Object Name>,<Component Type>,<Component Name>,<Inlet Node ID>,<Outlet Node ID>,<Description>
 Component Set,1,BRANCH,25 ZONE DOAS MAIN BRANCH,FAN:CONSTANTVOLUME,DOAS EXHAUST FAN,25 ZONE DOAS SUPPLY INLET NODE,DOAS EXHAUST FAN OUTLET AIR NODE,Air Nodes
 Component Set,2,BRANCH,25 ZONE DOAS MAIN BRANCH,AIRLOOPHVAC:OUTDOORAIRSYSTEM,25 ZONE DOAS OA SYSTEM,DOAS EXHAUST FAN OUTLET AIR NODE,25 ZONE DOAS MIXED AIR NODE,Air Nodes
 Component Set,3,BRANCH,25 ZONE DOAS MAIN BRANCH,COIL:COOLING:WATER,25 ZONE DOAS CLG COIL,25 ZONE DOAS MIXED AIR NODE,25 ZONE DOAS CLG COIL OUTLET AIR NODE,Air Nodes
 Component Set,4,BRANCH,25 ZONE DOAS MAIN BRANCH,COIL:HEATING:WATER,25 ZONE DOAS HTG COIL,25 ZONE DOAS CLG COIL OUTLET AIR NODE,25 ZONE DOAS HTG COIL OUTLET AIR NODE,Air Nodes
 Component Set,5,BRANCH,25 ZONE DOAS MAIN BRANCH,FAN:CONSTANTVOLUME,DOAS SUPPLY FAN,25 ZONE DOAS HTG COIL OUTLET AIR NODE,25 ZONE DOAS SUPPLY OUTLET NODE,Air Nodes
 Component Set,6,BRANCH,CHILLED WATER LOOP SUPPLY INLET BRANCH,PUMP:CONSTANTSPEED,CHILLED WATER LOOP PRIMARY PUMP,CHILLED WATER LOOP SUPPLY INLET NODE,CHILLED WATER LOOP PRIMARY PUMP OUTLET WATER NODE,Water Nodes
 Component Set,7,BRANCH,CHILLED WATER LOOP SUPPLY BRANCH 1,CHILLER:ELECTRIC:EIR,NREL ZNE READY 2017 WATERCOOLED  ROTARY SCREW CHILLER 0 220TONS 0.6KW/TON,NREL ZNE READY 2017 WATERCOOLED  ROTARY SCREW CHILLER 0 SUPPLY INLET WATER NODE,NREL ZNE READY 2017 WATERCOOLED  ROTARY SCREW CHILLER 0 SUPPLY OUTLET WATER NODE,Chilled Water Nodes
 Component Set,8,BRANCH,CHILLED WATER LOOP SUPPLY BRANCH 2,PIPE:ADIABATIC,CHILLED WATER LOOP CHILLER BYPASS,CHILLED WATER LOOP CHILLER BYPASS INLET WATER NODE,CHILLED WATER LOOP CHILLER BYPASS OUTLET WATER NODE,Pipe Nodes
 Component Set,9,BRANCH,CHILLED WATER LOOP SUPPLY OUTLET BRANCH,PIPE:ADIABATIC,CHILLED WATER LOOP SUPPLY OUTLET,CHILLED WATER LOOP SUPPLY OUTLET INLET WATER NODE,CHILLED WATER LOOP SUPPLY OUTLET NODE,Pipe Nodes
 Component Set,10,BRANCH,CHILLED WATER LOOP DEMAND INLET BRANCH,PIPE:ADIABATIC,CHILLED WATER LOOP DEMAND INLET,CHILLED WATER LOOP DEMAND INLET NODE,CHILLED WATER LOOP SECONDARY PUMP INLET WATER NODE,Pipe Nodes
 Component Set,11,BRANCH,CHILLED WATER LOOP DEMAND INLET BRANCH,PUMP:VARIABLESPEED,CHILLED WATER LOOP SECONDARY PUMP,CHILLED WATER LOOP SECONDARY PUMP INLET WATER NODE,CHILLED WATER LOOP SECONDARY PUMP OUTLET WATER NODE,Water Nodes
 Component Set,12,BRANCH,CHILLED WATER LOOP DEMAND BRANCH 1,PIPE:ADIABATIC,CHILLED WATER LOOP COIL BYPASS,CHILLED WATER LOOP COIL BYPASS INLET WATER NODE,CHILLED WATER LOOP COIL BYPASS OUTLET WATER NODE,Pipe Nodes
 Component Set,13,BRANCH,CHILLED WATER LOOP DEMAND BRANCH 2,COIL:COOLING:WATER,25 ZONE DOAS CLG COIL,25 ZONE DOAS CLG COIL INLET WATER NODE,25 ZONE DOAS CLG COIL OUTLET WATER NODE,Water Nodes
 Component Set,14,BRANCH,CHILLED WATER LOOP DEMAND BRANCH 3,COIL:COOLING:WATER,OFFICES_ZN_1_FLR_1 ZN FCU COOLING COIL,OFFICES_ZN_1_FLR_1 ZN FCU COOLING COIL INLET WATER NODE,OFFICES_ZN_1_FLR_1 ZN FCU COOLING COIL OUTLET WATER NODE,Water Nodes
 Component Set,15,BRANCH,CHILLED WATER LOOP DEMAND BRANCH 4,COIL:COOLING:WATER,MULT_CLASS_2_POD_2_ZN_1_FLR_1 ZN FCU COOLING COIL,MULT_CLASS_2_POD_2_ZN_1_FLR_1 ZN FCU COOLING COIL INLET WATER NODE,MULT_CLASS_2_POD_2_ZN_1_FLR_1 ZN FCU COOLING COIL OUTLET WATER NODE,Water Nodes
[...]
 Non-Parent Node Connection,CORNER_CLASS_2_POD_3_ZN_1_FLR_1 ZN FCU COOLING COIL INLET WATER NODE,COIL:COOLING:WATER,CORNER_CLASS_2_POD_3_ZN_1_FLR_1 ZN FCU COOLING COIL,Inlet,2
 Non-Parent Node Connection,CORNER_CLASS_2_POD_3_ZN_1_FLR_1 ZN FCU COOLING COIL OUTLET WATER NODE,COIL:COOLING:WATER,CORNER_CLASS_2_POD_3_ZN_1_FLR_1 ZN FCU COOLING COIL,Outlet,2
 Non-Parent Node Connection,CORNER_CLASS_2_POD_3_ZN_1_FLR_1 ZN FCU FAN OUTLET NODE,COIL:COOLING:WATER,CORNER_CLASS_2_POD_3_ZN_1_FLR_1 ZN FCU COOLING COIL,Inlet,1
 Non-Parent Node Connection,CORNER_CLASS_2_POD_3_ZN_1_FLR_1 ZN FCU COOLING COIL OUTLET NODE,COIL:COOLING:WATER,CORNER_CLASS_2_POD_3_ZN_1_FLR_1 ZN FCU COOLING COIL,Outlet,1
 Non-Parent Node Connection,CORRIDOR_POD_1_ZN_1_FLR_1 ZN FCU COOLING COIL INLET WATER NODE,COIL:COOLING:WATER,CORRIDOR_POD_1_ZN_1_FLR_1 ZN FCU COOLING COIL,Inlet,2
 Non-Parent Node Connection,CORRIDOR_POD_1_ZN_1_FLR_1 ZN FCU COOLING COIL OUTLET WATER NODE,COIL:COOLING:WATER,CORRIDOR_POD_1_ZN_1_FLR_1 ZN FCU COOLING COIL,Outlet,2
 Non-Parent Node Connection,CORRIDOR_POD_1_ZN_1_FLR_1 ZN FCU FAN OUTLET NODE,COIL:COOLING:WATER,CORRIDOR_POD_1_ZN_1_FLR_1 ZN FCU COOLING COIL,Inlet,1
 Non-Parent Node Connection,CORRIDOR_POD_1_ZN_1_FLR_1 ZN FCU COOLING COIL OUTLET NODE,COIL:COOLING:WATER,CORRIDOR_POD_1_ZN_1_FLR_1 ZN FCU COOLING COIL,Outlet,1
 Non-Parent Node Connection,CORRIDOR_POD_2_ZN_1_FLR_1 ZN FCU COOLING COIL INLET WATER NODE,COIL:COOLING:WATER,CORRIDOR_POD_2_ZN_1_FLR_1 ZN FCU COOLING COIL,Inlet,2
 Non-Parent Node Connection,CORRIDOR_POD_2_ZN_1_FLR_1 ZN FCU COOLING COIL OUTLET WATER NODE,COIL:COOLING:WATER,CORRIDOR_POD_2_ZN_1_FLR_1 ZN FCU COOLING COIL,Outlet,2
 Non-Parent Node Connection,CORRIDOR_POD_2_ZN_1_FLR_1 ZN FCU FAN OUTLET NODE,COIL:COOLING:WATER,CORRIDOR_POD_2_ZN_1_FLR_1 ZN FCU COOLING COIL,Inlet,1
 Non-Parent Node Connection,CORRIDOR_POD_2_ZN_1_FLR_1 ZN FCU COOLING COIL OUTLET NODE,COIL:COOLING:WATER,CORRIDOR_POD_2_ZN_1_FLR_1 ZN FCU COOLING COIL,Outlet,1
 Non-Parent Node Connection,CORRIDOR_POD_3_ZN_1_FLR_1 ZN FCU COOLING COIL INLET WATER NODE,COIL:COOLING:WATER,CORRIDOR_POD_3_ZN_1_FLR_1 ZN FCU COOLING COIL,Inlet,2
 Non-Parent Node Connection,CORRIDOR_POD_3_ZN_1_FLR_1 ZN FCU COOLING COIL OUTLET WATER NODE,COIL:COOLING:WATER,CORRIDOR_POD_3_ZN_1_FLR_1 ZN FCU COOLING COIL,Outlet,2
 Non-Parent Node Connection,CORRIDOR_POD_3_ZN_1_FLR_1 ZN FCU FAN OUTLET NODE,COIL:COOLING:WATER,CORRIDOR_POD_3_ZN_1_FLR_1 ZN FCU COOLING COIL,Inlet,1
 Non-Parent Node Connection,CORRIDOR_POD_3_ZN_1_FLR_1 ZN FCU COOLING COIL OUTLET NODE,COIL:COOLING:WATER,CORRIDOR_POD_3_ZN_1_FLR_1 ZN FCU COOLING COIL,Outlet,1
 Non-Parent Node Connection,GYM_ZN_1_FLR_1 ZN FCU COOLING COIL INLET WATER NODE,COIL:COOLING:WATER,GYM_ZN_1_FLR_1 ZN FCU COOLING COIL,Inlet,2
 Non-Parent Node Connection,GYM_ZN_1_FLR_1 ZN FCU COOLING COIL OUTLET WATER NODE,COIL:COOLING:WATER,GYM_ZN_1_FLR_1 ZN FCU COOLING COIL,Outlet,2
 Non-Parent Node Connection,GYM_ZN_1_FLR_1 ZN FCU FAN OUTLET NODE,COIL:COOLING:WATER,GYM_ZN_1_FLR_1 ZN FCU COOLING COIL,Inlet,1
 Non-Parent Node Connection,GYM_ZN_1_FLR_1 ZN FCU COOLING COIL OUTLET NODE,COIL:COOLING:WATER,GYM_ZN_1_FLR_1 ZN FCU COOLING COIL,Outlet,1
 Non-Parent Node Connection,KITCHEN_ZN_1_FLR_1 ZN FCU COOLING COIL INLET WATER NODE,COIL:COOLING:WATER,KITCHEN_ZN_1_FLR_1 ZN FCU COOLING COIL,Inlet,2
 Non-Parent Node Connection,KITCHEN_ZN_1_FLR_1 ZN FCU COOLING COIL OUTLET WATER NODE,COIL:COOLING:WATER,KITCHEN_ZN_1_FLR_1 ZN FCU COOLING COIL,Outlet,2
 Non-Parent Node Connection,KITCHEN_ZN_1_FLR_1 ZN FCU FAN OUTLET NODE,COIL:COOLING:WATER,KITCHEN_ZN_1_FLR_1 ZN FCU COOLING COIL,Inlet,1
 Non-Parent Node Connection,KITCHEN_ZN_1_FLR_1 ZN FCU COOLING COIL OUTLET NODE,COIL:COOLING:WATER,KITCHEN_ZN_1_FLR_1 ZN FCU COOLING COIL,Outlet,1
 Non-Parent Node Connection,LIBRARY_MEDIA_CENTER_ZN_1_FLR_1 ZN FCU COOLING COIL INLET WATER NODE,COIL:COOLING:WATER,LIBRARY_MEDIA_CENTER_ZN_1_FLR_1 ZN FCU COOLING COIL,Inlet,2
 Non-Parent Node Connection,LIBRARY_MEDIA_CENTER_ZN_1_FLR_1 ZN FCU COOLING COIL OUTLET WATER NODE,COIL:COOLING:WATER,LIBRARY_MEDIA_CENTER_ZN_1_FLR_1 ZN FCU COOLING COIL,Outlet,2
 Non-Parent Node Connection,LIBRARY_MEDIA_CENTER_ZN_1_FLR_1 ZN FCU FAN OUTLET NODE,COIL:COOLING:WATER,LIBRARY_MEDIA_CENTER_ZN_1_FLR_1 ZN FCU COOLING COIL,Inlet,1
 Non-Parent Node Connection,LIBRARY_MEDIA_CENTER_ZN_1_FLR_1 ZN FCU COOLING COIL OUTLET NODE,COIL:COOLING:WATER,LIBRARY_MEDIA_CENTER_ZN_1_FLR_1 ZN FCU COOLING COIL,Outlet,1
 Non-Parent Node Connection,LOBBY_ZN_1_FLR_1 ZN FCU COOLING COIL INLET WATER NODE,COIL:COOLING:WATER,LOBBY_ZN_1_FLR_1 ZN FCU COOLING COIL,Inlet,2
 Non-Parent Node Connection,LOBBY_ZN_1_FLR_1 ZN FCU COOLING COIL OUTLET WATER NODE,COIL:COOLING:WATER,LOBBY_ZN_1_FLR_1 ZN FCU COOLING COIL,Outlet,2
 Non-Parent Node Connection,LOBBY_ZN_1_FLR_1 ZN FCU FAN OUTLET NODE,COIL:COOLING:WATER,LOBBY_ZN_1_FLR_1 ZN FCU COOLING COIL,Inlet,1
 Non-Parent Node Connection,LOBBY_ZN_1_FLR_1 ZN FCU COOLING COIL OUTLET NODE,COIL:COOLING:WATER,LOBBY_ZN_1_FLR_1 ZN FCU COOLING COIL,Outlet,1
 Non-Parent Node Connection,MAIN_CORRIDOR_ZN_1_FLR_1 ZN FCU COOLING COIL INLET WATER NODE,COIL:COOLING:WATER,MAIN_CORRIDOR_ZN_1_FLR_1 ZN FCU COOLING COIL,Inlet,2
 Non-Parent Node Connection,MAIN_CORRIDOR_ZN_1_FLR_1 ZN FCU COOLING COIL OUTLET WATER NODE,COIL:COOLING:WATER,MAIN_CORRIDOR_ZN_1_FLR_1 ZN FCU COOLING COIL,Outlet,2
 Non-Parent Node Connection,MAIN_CORRIDOR_ZN_1_FLR_1 ZN FCU FAN OUTLET NODE,COIL:COOLING:WATER,MAIN_CORRIDOR_ZN_1_FLR_1 ZN FCU COOLING COIL,Inlet,1
 Non-Parent Node Connection,MAIN_CORRIDOR_ZN_1_FLR_1 ZN FCU COOLING COIL OUTLET NODE,COIL:COOLING:WATER,MAIN_CORRIDOR_ZN_1_FLR_1 ZN FCU COOLING COIL,Outlet,1
 Non-Parent Node Connection,MECH_ZN_1_FLR_1 ZN FCU COOLING COIL INLET WATER NODE,COIL:COOLING:WATER,MECH_ZN_1_FLR_1 ZN FCU COOLING COIL,Inlet,2
 Non-Parent Node Connection,MECH_ZN_1_FLR_1 ZN FCU COOLING COIL OUTLET WATER NODE,COIL:COOLING:WATER,MECH_ZN_1_FLR_1 ZN FCU COOLING COIL,Outlet,2
 Non-Parent Node Connection,MECH_ZN_1_FLR_1 ZN FCU FAN OUTLET NODE,COIL:COOLING:WATER,MECH_ZN_1_FLR_1 ZN FCU COOLING COIL,Inlet,1
 Non-Parent Node Connection,MECH_ZN_1_FLR_1 ZN FCU COOLING COIL OUTLET NODE,COIL:COOLING:WATER,MECH_ZN_1_FLR_1 ZN FCU COOLING COIL,Outlet,1
 Non-Parent Node Connection,MULT_CLASS_1_POD_1_ZN_1_FLR_1 ZN FCU COOLING COIL INLET WATER NODE,COIL:COOLING:WATER,MULT_CLASS_1_POD_1_ZN_1_FLR_1 ZN FCU COOLING COIL,Inlet,2
 Non-Parent Node Connection,MULT_CLASS_1_POD_1_ZN_1_FLR_1 ZN FCU COOLING COIL OUTLET WATER NODE,COIL:COOLING:WATER,MULT_CLASS_1_POD_1_ZN_1_FLR_1 ZN FCU COOLING COIL,Outlet,2
 Non-Parent Node Connection,MULT_CLASS_1_POD_1_ZN_1_FLR_1 ZN FCU FAN OUTLET NODE,COIL:COOLING:WATER,MULT_CLASS_1_POD_1_ZN_1_FLR_1 ZN FCU COOLING COIL,Inlet,1
 Non-Parent Node Connection,MULT_CLASS_1_POD_1_ZN_1_FLR_1 ZN FCU COOLING COIL OUTLET NODE,COIL:COOLING:WATER,MULT_CLASS_1_POD_1_ZN_1_FLR_1 ZN FCU COOLING COIL,Outlet,1
 Non-Parent Node Connection,MULT_CLASS_1_POD_2_ZN_1_FLR_1 ZN FCU COOLING COIL INLET WATER NODE,COIL:COOLING:WATER,MULT_CLASS_1_POD_2_ZN_1_FLR_1 ZN FCU COOLING COIL,Inlet,2
 Non-Parent Node Connection,MULT_CLASS_1_POD_2_ZN_1_FLR_1 ZN FCU COOLING COIL OUTLET WATER NODE,COIL:COOLING:WATER,MULT_CLASS_1_POD_2_ZN_1_FLR_1 ZN FCU COOLING COIL,Outlet,2
 Non-Parent Node Connection,MULT_CLASS_1_POD_2_ZN_1_FLR_1 ZN FCU FAN OUTLET NODE,COIL:COOLING:WATER,MULT_CLASS_1_POD_2_ZN_1_FLR_1 ZN FCU COOLING COIL,Inlet,1
 Non-Parent Node Connection,MULT_CLASS_1_POD_2_ZN_1_FLR_1 ZN FCU COOLING COIL OUTLET NODE,COIL:COOLING:WATER,MULT_CLASS_1_POD_2_ZN_1_FLR_1 ZN FCU COOLING COIL,Outlet,1
 Non-Parent Node Connection,MULT_CLASS_1_POD_3_ZN_1_FLR_1 ZN FCU COOLING COIL INLET WATER NODE,COIL:COOLING:WATER,MULT_CLASS_1_POD_3_ZN_1_FLR_1 ZN FCU COOLING COIL,Inlet,2
 Non-Parent Node Connection,MULT_CLASS_1_POD_3_ZN_1_FLR_1 ZN FCU COOLING COIL OUTLET WATER NODE,COIL:COOLING:WATER,MULT_CLASS_1_POD_3_ZN_1_FLR_1 ZN FCU COOLING COIL,Outlet,2
 Non-Parent Node Connection,MULT_CLASS_1_POD_3_ZN_1_FLR_1 ZN FCU FAN OUTLET NODE,COIL:COOLING:WATER,MULT_CLASS_1_POD_3_ZN_1_FLR_1 ZN FCU COOLING COIL,Inlet,1
 Non-Parent Node Connection,MULT_CLASS_1_POD_3_ZN_1_FLR_1 ZN FCU COOLING COIL OUTLET NODE,COIL:COOLING:WATER,MULT_CLASS_1_POD_3_ZN_1_FLR_1 ZN FCU COOLING COIL,Outlet,1
 Non-Parent Node Connection,MULT_CLASS_2_POD_1_ZN_1_FLR_1 ZN FCU COOLING COIL INLET WATER NODE,COIL:COOLING:WATER,MULT_CLASS_2_POD_1_ZN_1_FLR_1 ZN FCU COOLING COIL,Inlet,2
 Non-Parent Node Connection,MULT_CLASS_2_POD_1_ZN_1_FLR_1 ZN FCU COOLING COIL OUTLET WATER NODE,COIL:COOLING:WATER,MULT_CLASS_2_POD_1_ZN_1_FLR_1 ZN FCU COOLING COIL,Outlet,2
 Non-Parent Node Connection,MULT_CLASS_2_POD_1_ZN_1_FLR_1 ZN FCU FAN OUTLET NODE,COIL:COOLING:WATER,MULT_CLASS_2_POD_1_ZN_1_FLR_1 ZN FCU COOLING COIL,Inlet,1
 Non-Parent Node Connection,MULT_CLASS_2_POD_1_ZN_1_FLR_1 ZN FCU COOLING COIL OUTLET NODE,COIL:COOLING:WATER,MULT_CLASS_2_POD_1_ZN_1_FLR_1 ZN FCU COOLING COIL,Outlet,1
 Non-Parent Node Connection,MULT_CLASS_2_POD_2_ZN_1_FLR_1 ZN FCU COOLING COIL INLET WATER NODE,COIL:COOLING:WATER,MULT_CLASS_2_POD_2_ZN_1_FLR_1 ZN FCU COOLING COIL,Inlet,2
 Non-Parent Node Connection,MULT_CLASS_2_POD_2_ZN_1_FLR_1 ZN FCU COOLING COIL OUTLET WATER NODE,COIL:COOLING:WATER,MULT_CLASS_2_POD_2_ZN_1_FLR_1 ZN FCU COOLING COIL,Outlet,2
 Non-Parent Node Connection,MULT_CLASS_2_POD_2_ZN_1_FLR_1 ZN FCU FAN OUTLET NODE,COIL:COOLING:WATER,MULT_CLASS_2_POD_2_ZN_1_FLR_1 ZN FCU COOLING COIL,Inlet,1
 Non-Parent Node Connection,MULT_CLASS_2_POD_2_ZN_1_FLR_1 ZN FCU COOLING COIL OUTLET NODE,COIL:COOLING:WATER,MULT_CLASS_2_POD_2_ZN_1_FLR_1 ZN FCU COOLING COIL,Outlet,1
 Non-Parent Node Connection,MULT_CLASS_2_POD_3_ZN_1_FLR_1 ZN FCU COOLING COIL INLET WATER NODE,COIL:COOLING:WATER,MULT_CLASS_2_POD_3_ZN_1_FLR_1 ZN FCU COOLING COIL,Inlet,2
 Non-Parent Node Connection,MULT_CLASS_2_POD_3_ZN_1_FLR_1 ZN FCU COOLING COIL OUTLET WATER NODE,COIL:COOLING:WATER,MULT_CLASS_2_POD_3_ZN_1_FLR_1 ZN FCU COOLING COIL,Outlet,2
 Non-Parent Node Connection,MULT_CLASS_2_POD_3_ZN_1_FLR_1 ZN FCU FAN OUTLET NODE,COIL:COOLING:WATER,MULT_CLASS_2_POD_3_ZN_1_FLR_1 ZN FCU COOLING COIL,Inlet,1
 Non-Parent Node Connection,MULT_CLASS_2_POD_3_ZN_1_FLR_1 ZN FCU COOLING COIL OUTLET NODE,COIL:COOLING:WATER,MULT_CLASS_2_POD_3_ZN_1_FLR_1 ZN FCU COOLING COIL,Outlet,1
 Non-Parent Node Connection,OFFICES_ZN_1_FLR_1 ZN FCU COOLING COIL INLET WATER NODE,COIL:COOLING:WATER,OFFICES_ZN_1_FLR_1 ZN FCU COOLING COIL,Inlet,2
 Non-Parent Node Connection,OFFICES_ZN_1_FLR_1 ZN FCU COOLING COIL OUTLET WATER NODE,COIL:COOLING:WATER,OFFICES_ZN_1_FLR_1 ZN FCU COOLING COIL,Outlet,2
 Non-Parent Node Connection,OFFICES_ZN_1_FLR_1 ZN FCU FAN OUTLET NODE,COIL:COOLING:WATER,OFFICES_ZN_1_FLR_1 ZN FCU COOLING COIL,Inlet,1
 Non-Parent Node Connection,OFFICES_ZN_1_FLR_1 ZN FCU COOLING COIL OUTLET NODE,COIL:COOLING:WATER,OFFICES_ZN_1_FLR_1 ZN FCU COOLING COIL,Outlet,1
 Non-Parent Node Connection,25 ZONE DOAS CLG COIL INLET WATER NODE,COIL:COOLING:WATER,25 ZONE DOAS CLG COIL,Inlet,2
 Non-Parent Node Connection,25 ZONE DOAS CLG COIL OUTLET WATER NODE,COIL:COOLING:WATER,25 ZONE DOAS CLG COIL,Outlet,2
 Non-Parent Node Connection,25 ZONE DOAS MIXED AIR NODE,COIL:COOLING:WATER,25 ZONE DOAS CLG COIL,Inlet,1
 Non-Parent Node Connection,25 ZONE DOAS CLG COIL OUTLET AIR NODE,COIL:COOLING:WATER,25 ZONE DOAS CLG COIL,Outlet,1
 Non-Parent Node Connection,25 ZONE DOAS CLG COIL OUTLET AIR NODE,CONTROLLER:WATERCOIL,25 ZONE DOAS CLG COIL CONTROLLER,Sensor,1
 Non-Parent Node Connection,25 ZONE DOAS CLG COIL INLET WATER NODE,CONTROLLER:WATERCOIL,25 ZONE DOAS CLG COIL CONTROLLER,Actuator,1
 Non-Parent Node Connection,25 ZONE DOAS HTG COIL OUTLET AIR NODE,CONTROLLER:WATERCOIL,25 ZONE DOAS HTG COIL CONTROLLER,Sensor,1
 Non-Parent Node Connection,25 ZONE DOAS HTG COIL INLET WATER NODE,CONTROLLER:WATERCOIL,25 ZONE DOAS HTG COIL CONTROLLER,Actuator,1
 Non-Parent Node Connection,25 ZONE DOAS DEMAND OUTLET NODE,AIRLOOPHVAC:ZONEMIXER,AIR LOOP HVAC ZONE MIXER 1,Outlet,1
 Non-Parent Node Connection,OFFICES_ZN_1_FLR_1 ZN RETURN AIR NODE,AIRLOOPHVAC:ZONEMIXER,AIR LOOP HVAC ZONE MIXER 1,Inlet,1
 Non-Parent Node Connection,MULT_CLASS_2_POD_2_ZN_1_FLR_1 ZN RETURN AIR NODE,AIRLOOPHVAC:ZONEMIXER,AIR LOOP HVAC ZONE MIXER 1,Inlet,1
 Non-Parent Node Connection,MULT_CLASS_2_POD_1_ZN_1_FLR_1 ZN RETURN AIR NODE,AIRLOOPHVAC:ZONEMIXER,AIR LOOP HVAC ZONE MIXER 1,Inlet,1
 Non-Parent Node Connection,MULT_CLASS_2_POD_3_ZN_1_FLR_1 ZN RETURN AIR NODE,AIRLOOPHVAC:ZONEMIXER,AIR LOOP HVAC ZONE MIXER 1,Inlet,1
 Non-Parent Node Connection,MULT_CLASS_1_POD_1_ZN_1_FLR_1 ZN RETURN AIR NODE,AIRLOOPHVAC:ZONEMIXER,AIR LOOP HVAC ZONE MIXER 1,Inlet,1
 Non-Parent Node Connection,BATH_ZN_1_FLR_1 ZN RETURN AIR NODE,AIRLOOPHVAC:ZONEMIXER,AIR LOOP HVAC ZONE MIXER 1,Inlet,1
 Non-Parent Node Connection,CORRIDOR_POD_1_ZN_1_FLR_1 ZN RETURN AIR NODE,AIRLOOPHVAC:ZONEMIXER,AIR LOOP HVAC ZONE MIXER 1,Inlet,1
 Non-Parent Node Connection,LIBRARY_MEDIA_CENTER_ZN_1_FLR_1 ZN RETURN AIR NODE,AIRLOOPHVAC:ZONEMIXER,AIR LOOP HVAC ZONE MIXER 1,Inlet,1
 Non-Parent Node Connection,KITCHEN_ZN_1_FLR_1 ZN RETURN AIR NODE,AIRLOOPHVAC:ZONEMIXER,AIR LOOP HVAC ZONE MIXER 1,Inlet,1
 Non-Parent Node Connection,LOBBY_ZN_1_FLR_1 ZN RETURN AIR NODE,AIRLOOPHVAC:ZONEMIXER,AIR LOOP HVAC ZONE MIXER 1,Inlet,1
 Non-Parent Node Connection,COMPUTER_CLASS_ZN_1_FLR_1 ZN RETURN AIR NODE,AIRLOOPHVAC:ZONEMIXER,AIR LOOP HVAC ZONE MIXER 1,Inlet,1
 Non-Parent Node Connection,CORRIDOR_POD_3_ZN_1_FLR_1 ZN RETURN AIR NODE,AIRLOOPHVAC:ZONEMIXER,AIR LOOP HVAC ZONE MIXER 1,Inlet,1
 Non-Parent Node Connection,MECH_ZN_1_FLR_1 ZN RETURN AIR NODE,AIRLOOPHVAC:ZONEMIXER,AIR LOOP HVAC ZONE MIXER 1,Inlet,1
 Non-Parent Node Connection,CORNER_CLASS_1_POD_3_ZN_1_FLR_1 ZN RETURN AIR NODE,AIRLOOPHVAC:ZONEMIXER,AIR LOOP HVAC ZONE MIXER 1,Inlet,1
 Non-Parent Node Connection,CAFETERIA_ZN_1_FLR_1 ZN RETURN AIR NODE,AIRLOOPHVAC:ZONEMIXER,AIR LOOP HVAC ZONE MIXER 1,Inlet,1
 Non-Parent Node Connection,CORRIDOR_POD_2_ZN_1_FLR_1 ZN RETURN AIR NODE,AIRLOOPHVAC:ZONEMIXER,AIR LOOP HVAC ZONE MIXER 1,Inlet,1
 Non-Parent Node Connection,CORNER_CLASS_2_POD_3_ZN_1_FLR_1 ZN RETURN AIR NODE,AIRLOOPHVAC:ZONEMIXER,AIR LOOP HVAC ZONE MIXER 1,Inlet,1
 Non-Parent Node Connection,CORNER_CLASS_2_POD_2_ZN_1_FLR_1 ZN RETURN AIR NODE,AIRLOOPHVAC:ZONEMIXER,AIR LOOP HVAC ZONE MIXER 1,Inlet,1
 Non-Parent Node Connection,CORNER_CLASS_2_POD_1_ZN_1_FLR_1 ZN RETURN AIR NODE,AIRLOOPHVAC:ZONEMIXER,AIR LOOP HVAC ZONE MIXER 1,Inlet,1
 Non-Parent Node Connection,GYM_ZN_1_FLR_1 ZN RETURN AIR NODE,AIRLOOPHVAC:ZONEMIXER,AIR LOOP HVAC ZONE MIXER 1,Inlet,1
 Non-Parent Node Connection,CORNER_CLASS_1_POD_1_ZN_1_FLR_1 ZN RETURN AIR NODE,AIRLOOPHVAC:ZONEMIXER,AIR LOOP HVAC ZONE MIXER 1,Inlet,1
 Non-Parent Node Connection,MULT_CLASS_1_POD_2_ZN_1_FLR_1 ZN RETURN AIR NODE,AIRLOOPHVAC:ZONEMIXER,AIR LOOP HVAC ZONE MIXER 1,Inlet,1
 Non-Parent Node Connection,MULT_CLASS_1_POD_3_ZN_1_FLR_1 ZN RETURN AIR NODE,AIRLOOPHVAC:ZONEMIXER,AIR LOOP HVAC ZONE MIXER 1,Inlet,1
 Non-Parent Node Connection,MAIN_CORRIDOR_ZN_1_FLR_1 ZN RETURN AIR NODE,AIRLOOPHVAC:ZONEMIXER,AIR LOOP HVAC ZONE MIXER 1,Inlet,1
 Non-Parent Node Connection,CORNER_CLASS_1_POD_2_ZN_1_FLR_1 ZN RETURN AIR NODE,AIRLOOPHVAC:ZONEMIXER,AIR LOOP HVAC ZONE MIXER 1,Inlet,1
 Non-Parent Node Connection,25 ZONE DOAS MIXED AIR NODE,CONTROLLER:OUTDOORAIR,25 ZONE DOAS OUTDOOR AIR CONTROLLER,Sensor,1
 Non-Parent Node Connection,25 ZONE DOAS OUTDOOR AIR NODE,CONTROLLER:OUTDOORAIR,25 ZONE DOAS OUTDOOR AIR CONTROLLER,Actuator,1
 Non-Parent Node Connection,25 ZONE DOAS HEAT EXCHANGER SECONDARY INLET AIR NODE,CONTROLLER:OUTDOORAIR,25 ZONE DOAS OUTDOOR AIR CONTROLLER,Actuator,1
 Non-Parent Node Connection,DOAS EXHAUST FAN OUTLET AIR NODE,CONTROLLER:OUTDOORAIR,25 ZONE DOAS OUTDOOR AIR CONTROLLER,Sensor,1
 Non-Parent Node Connection,25 ZONE DOAS OUTDOOR AIR NODE,HEATEXCHANGER:AIRTOAIR:SENSIBLEANDLATENT,25 ZONE DOAS HEAT EXCHANGER,Inlet,1
 Non-Parent Node Connection,25 ZONE DOAS HEAT EXCHANGER PRIMARY OUTLET AIR NODE,HEATEXCHANGER:AIRTOAIR:SENSIBLEANDLATENT,25 ZONE DOAS HEAT EXCHANGER,Outlet,1
 Non-Parent Node Connection,25 ZONE DOAS HEAT EXCHANGER SECONDARY INLET AIR NODE,HEATEXCHANGER:AIRTOAIR:SENSIBLEANDLATENT,25 ZONE DOAS HEAT EXCHANGER,Inlet,2
 Non-Parent Node Connection,25 ZONE DOAS RELIEF AIR NODE,HEATEXCHANGER:AIRTOAIR:SENSIBLEANDLATENT,25 ZONE DOAS HEAT EXCHANGER,Outlet,2
 Non-Parent Node Connection,NREL ZNE READY 2017 WATERCOOLED  ROTARY SCREW CHILLER 0 SUPPLY INLET WATER NODE,CHILLER:ELECTRIC:EIR,NREL ZNE READY 2017 WATERCOOLED  ROTARY SCREW CHILLER 0 220TONS 0.6KW/TON,Inlet,1
 Non-Parent Node Connection,NREL ZNE READY 2017 WATERCOOLED  ROTARY SCREW CHILLER 0 SUPPLY OUTLET WATER NODE,CHILLER:ELECTRIC:EIR,NREL ZNE READY 2017 WATERCOOLED  ROTARY SCREW CHILLER 0 220TONS 0.6KW/TON,Outlet,1
 Non-Parent Node Connection,NREL ZNE READY 2017 WATERCOOLED  ROTARY SCREW CHILLER 0 DEMAND INLET WATER NODE,CHILLER:ELECTRIC:EIR,NREL ZNE READY 2017 WATERCOOLED  ROTARY SCREW CHILLER 0 220TONS 0.6KW/TON,Inlet,2
 Non-Parent Node Connection,NREL ZNE READY 2017 WATERCOOLED  ROTARY SCREW CHILLER 0 DEMAND OUTLET WATER NODE,CHILLER:ELECTRIC:EIR,NREL ZNE READY 2017 WATERCOOLED  ROTARY SCREW CHILLER 0 220TONS 0.6KW/TON,Outlet,2
 Non-Parent Node Connection,HX FOR BOOSTER WATER HEATING DEMAND INLET WATER NODE,HEATEXCHANGER:FLUIDTOFLUID,HX FOR BOOSTER WATER HEATING,Inlet,1
 Non-Parent Node Connection,HX FOR BOOSTER WATER HEATING DEMAND OUTLET WATER NODE,HEATEXCHANGER:FLUIDTOFLUID,HX FOR BOOSTER WATER HEATING,Outlet,1
 Non-Parent Node Connection,SERVICE WATER LOOP SUPPLY INLET NODE,HEATEXCHANGER:FLUIDTOFLUID,HX FOR BOOSTER WATER HEATING,Inlet,2
 Non-Parent Node Connection,BOOSTER WATER LOOP PUMP INLET WATER NODE,HEATEXCHANGER:FLUIDTOFLUID,HX FOR BOOSTER WATER HEATING,Outlet,2
 Non-Parent Node Connection,SERVICE WATER LOOP SUPPLY OUTLET NODE,HEATEXCHANGER:FLUIDTOFLUID,HX FOR BOOSTER WATER HEATING,Sensor,1
 Non-Parent Node Connection,PROPELLER OR AXIAL VARIABLE SPEED FAN OPEN COOLING TOWER INLET WATER NODE,COOLINGTOWER:VARIABLESPEED,PROPELLER OR AXIAL VARIABLE SPEED FAN OPEN COOLING TOWER,Inlet,1
 Non-Parent Node Connection,PROPELLER OR AXIAL VARIABLE SPEED FAN OPEN COOLING TOWER OUTLET WATER NODE,COOLINGTOWER:VARIABLESPEED,PROPELLER OR AXIAL VARIABLE SPEED FAN OPEN COOLING TOWER,Outlet,1
 Non-Parent Node Connection,BOILER INLET WATER NODE,BOILER:HOTWATER,BOILER 2699KBTU/HR 0.94 COMBUSTION EFF,Inlet,1
 Non-Parent Node Connection,BOILER OUTLET WATER NODE,BOILER:HOTWATER,BOILER 2699KBTU/HR 0.94 COMBUSTION EFF,Outlet,1
 Non-Parent Node Connection,CHILLED WATER LOOP SECONDARY PUMP INLET WATER NODE,PUMP:VARIABLESPEED,CHILLED WATER LOOP SECONDARY PUMP,Inlet,1
 Non-Parent Node Connection,CHILLED WATER LOOP SECONDARY PUMP OUTLET WATER NODE,PUMP:VARIABLESPEED,CHILLED WATER LOOP SECONDARY PUMP,Outlet,1
 Non-Parent Node Connection,HOT WATER LOOP SUPPLY INLET NODE,PUMP:VARIABLESPEED,HOT WATER LOOP PUMP,Inlet,1
 Non-Parent Node Connection,HOT WATER LOOP PUMP OUTLET WATER NODE,PUMP:VARIABLESPEED,HOT WATER LOOP PUMP,Outlet,1
 Non-Parent Node Connection,CHILLED WATER LOOP SUPPLY INLET NODE,PUMP:CONSTANTSPEED,CHILLED WATER LOOP PRIMARY PUMP,Inlet,1
 Non-Parent Node Connection,CHILLED WATER LOOP PRIMARY PUMP OUTLET WATER NODE,PUMP:CONSTANTSPEED,CHILLED WATER LOOP PRIMARY PUMP,Outlet,1
 Non-Parent Node Connection,CONDENSER WATER LOOP SUPPLY INLET NODE,PUMP:CONSTANTSPEED,CONDENSER WATER LOOP CONSTANT PUMP,Inlet,1
 Non-Parent Node Connection,CONDENSER WATER LOOP CONSTANT PUMP OUTLET WATER NODE,PUMP:CONSTANTSPEED,CONDENSER WATER LOOP CONSTANT PUMP,Outlet,1
 Non-Parent Node Connection,MAIN SERVICE WATER LOOP SUPPLY INLET NODE,PUMP:CONSTANTSPEED,SERVICE WATER LOOP PUMP,Inlet,1
 Non-Parent Node Connection,SERVICE WATER LOOP PUMP OUTLET WATER NODE,PUMP:CONSTANTSPEED,SERVICE WATER LOOP PUMP,Outlet,1
 Non-Parent Node Connection,BOOSTER WATER LOOP PUMP INLET WATER NODE,PUMP:CONSTANTSPEED,BOOSTER WATER LOOP PUMP,Inlet,1
 Non-Parent Node Connection,BOOSTER WATER LOOP PUMP OUTLET WATER NODE,PUMP:CONSTANTSPEED,BOOSTER WATER LOOP PUMP,Outlet,1
