{
   "completed_at" : "20190410T050411Z",
   "completed_status" : "Success",
   "created_at" : "20190410T050310Z",
   "current_step" : 0,
   "eplusout_err" : "Program Version,EnergyPlus, Version 9.1.0-08d2e308bb, YMD=2019.04.09 23:03,\n   ************* Beginning Zone Sizing Calculations\n   ** Warning ** ProcessScheduleInput: Schedule:Day:Interval=\"ECONOMIZER MAX OA FRACTION 70 PCT DEFAULT\", Blank Schedule Type Limits Name input -- will not be validated.\n   ** Warning ** ProcessScheduleInput: Schedule:Day:Interval=\"ECONOMIZER MAX OA FRACTION 70 PCT DEFAULT 1\", Blank Schedule Type Limits Name input -- will not be validated.\n   ** Warning ** ProcessScheduleInput: Schedule:Day:Interval=\"OFFICEMEDIUM HVACOPERATIONSCHD DEFAULT\", Blank Schedule Type Limits Name input -- will not be validated.\n   ** Warning ** ProcessScheduleInput: Schedule:Day:Interval=\"OFFICEMEDIUM HVACOPERATIONSCHD SMRDSN|WKDY DAY\", Blank Schedule Type Limits Name input -- will not be validated.\n   ** Warning ** ProcessScheduleInput: Schedule:Day:Interval=\"OFFICEMEDIUM HVACOPERATIONSCHD SUMMER DESIGN DAY\", Blank Schedule Type Limits Name input -- will not be validated.\n   ** Warning ** ProcessScheduleInput: Schedule:Day:Interval=\"OFFICEMEDIUM HVACOPERATIONSCHD WINTER DESIGN DAY\", Blank Schedule Type Limits Name input -- will not be validated.\n   ** Warning ** ProcessScheduleInput: Schedule:Day:Interval=\"OFFICEMEDIUM HVACOPERATIONSCHD WNTRDSN|SAT DAY\", Blank Schedule Type Limits Name input -- will not be validated.\n   ** Warning ** ProcessScheduleInput: Schedule:Day:Interval=\"SCHEDULE DAY 1\", Blank Schedule Type Limits Name input -- will not be validated.\n   ** Warning ** ProcessScheduleInput: Schedule:Day:Interval=\"SCHEDULE DAY 2\", Blank Schedule Type Limits Name input -- will not be validated.\n   ** Warning ** ProcessScheduleInput: Schedule:Day:Interval=\"SCHEDULE DAY 3\", Blank Schedule Type Limits Name input -- will not be validated.\n   ** Warning ** ProcessScheduleInput: Schedule:Day:Interval=\"SCHEDULE DAY 4\", Blank Schedule Type Limits Name input -- will not be validated.\n   ** Warning ** ProcessScheduleInput: Schedule:Day:Interval=\"SCHEDULE DAY 6\", Blank Schedule Type Limits Name input -- will not be validated.\n   ** Warning ** ProcessScheduleInput: Schedule:Day:Interval=\"SCHEDULE DAY 7\", Blank Schedule Type Limits Name input -- will not be validated.\n   ** Warning ** ProcessScheduleInput: Schedule:Year=\"ECONOMIZER MAX OA FRACTION 70 PCT\", Blank Schedule Type Limits Name input -- will not be validated.\n   ** Warning ** ProcessScheduleInput: Schedule:Year=\"OFFICEMEDIUM HVACOPERATIONSCHD\", Blank Schedule Type Limits Name input -- will not be validated.\n   ** Warning ** ProcessScheduleInput: Schedule:Constant=\"ALWAYS ON CONTINUOUS\", Blank Schedule Type Limits Name input -- will not be validated.\n   ** Warning ** CheckUsedConstructions: There are 9 nominally unused constructions in input.\n   **   ~~~   ** For explicit details on each unused construction, use Output:Diagnostics,DisplayExtraWarnings;\n   ** Warning ** GetDaylightingControls: Fraction of Zone controlled by the Daylighting reference points is < 1.0.\n   **   ~~~   ** ..discovered in \"Daylighting:Controls\" for Zone=\"PERIMETER_BOT_ZN_1 ZN\", only 0.52 of the zone is controlled.\n   ** Warning ** GetDaylightingControls: Fraction of Zone controlled by the Daylighting reference points is < 1.0.\n   **   ~~~   ** ..discovered in \"Daylighting:Controls\" for Zone=\"PERIMETER_BOT_ZN_2 ZN\", only 0.52 of the zone is controlled.\n   ** Warning ** GetDaylightingControls: Fraction of Zone controlled by the Daylighting reference points is < 1.0.\n   **   ~~~   ** ..discovered in \"Daylighting:Controls\" for Zone=\"PERIMETER_BOT_ZN_3 ZN\", only 0.52 of the zone is controlled.\n   ** Warning ** GetDaylightingControls: Fraction of Zone controlled by the Daylighting reference points is < 1.0.\n   **   ~~~   ** ..discovered in \"Daylighting:Controls\" for Zone=\"PERIMETER_BOT_ZN_4 ZN\", only 0.52 of the zone is controlled.\n   ** Warning ** GetDaylightingControls: Fraction of Zone controlled by the Daylighting reference points is < 1.0.\n   **   ~~~   ** ..discovered in \"Daylighting:Controls\" for Zone=\"PERIMETER_MID_ZN_1 ZN\", only 0.52 of the zone is controlled.\n   ** Warning ** GetDaylightingControls: Fraction of Zone controlled by the Daylighting reference points is < 1.0.\n   **   ~~~   ** ..discovered in \"Daylighting:Controls\" for Zone=\"PERIMETER_MID_ZN_2 ZN\", only 0.52 of the zone is controlled.\n   ** Warning ** GetDaylightingControls: Fraction of Zone controlled by the Daylighting reference points is < 1.0.\n   **   ~~~   ** ..discovered in \"Daylighting:Controls\" for Zone=\"PERIMETER_MID_ZN_3 ZN\", only 0.52 of the zone is controlled.\n   ** Warning ** GetDaylightingControls: Fraction of Zone controlled by the Daylighting reference points is < 1.0.\n   **   ~~~   ** ..discovered in \"Daylighting:Controls\" for Zone=\"PERIMETER_MID_ZN_4 ZN\", only 0.52 of the zone is controlled.\n   ** Warning ** GetDaylightingControls: Fraction of Zone controlled by the Daylighting reference points is < 1.0.\n   **   ~~~   ** ..discovered in \"Daylighting:Controls\" for Zone=\"PERIMETER_TOP_ZN_1 ZN\", only 0.52 of the zone is controlled.\n   ** Warning ** GetDaylightingControls: Fraction of Zone controlled by the Daylighting reference points is < 1.0.\n   **   ~~~   ** ..discovered in \"Daylighting:Controls\" for Zone=\"PERIMETER_TOP_ZN_2 ZN\", only 0.52 of the zone is controlled.\n   ** Warning ** GetDaylightingControls: Fraction of Zone controlled by the Daylighting reference points is < 1.0.\n   **   ~~~   ** ..discovered in \"Daylighting:Controls\" for Zone=\"PERIMETER_TOP_ZN_3 ZN\", only 0.52 of the zone is controlled.\n   ** Warning ** GetDaylightingControls: Fraction of Zone controlled by the Daylighting reference points is < 1.0.\n   **   ~~~   ** ..discovered in \"Daylighting:Controls\" for Zone=\"PERIMETER_TOP_ZN_4 ZN\", only 0.52 of the zone is controlled.\n   ************* Beginning System Sizing Calculations\n   ** Warning ** AirConditioner:VariableRefrigerantFlow = \"5 ZONE VRF SYSTEM\", Maximum Outdoor Temperature in Heat Recovery Mode is greater than the maximum temperature in heat pump mode.\n   **   ~~~   ** ...Maximum Outdoor Temperature in Heat Recovery Mode = 27.20 C\n   **   ~~~   ** ...Maximum Outdoor Temperature in Cooling Mode = 50.00 C\n   **   ~~~   ** ...Maximum Outdoor Temperature in Heating Mode = 16.10 C\n   **   ~~~   ** ...Maximum Outdoor Temperature in Heat Recovery Mode reset to lesser of cooling or heating minimum temperature and simulation continues.\n   **   ~~~   ** ... adjusted Maximum Outdoor Temperature in Heat Recovery Mode = 16.10 C\n   ** Warning ** AirConditioner:VariableRefrigerantFlow = \"5 ZONE VRF SYSTEM 1\", Maximum Outdoor Temperature in Heat Recovery Mode is greater than the maximum temperature in heat pump mode.\n   **   ~~~   ** ...Maximum Outdoor Temperature in Heat Recovery Mode = 27.20 C\n   **   ~~~   ** ...Maximum Outdoor Temperature in Cooling Mode = 50.00 C\n   **   ~~~   ** ...Maximum Outdoor Temperature in Heating Mode = 16.10 C\n   **   ~~~   ** ...Maximum Outdoor Temperature in Heat Recovery Mode reset to lesser of cooling or heating minimum temperature and simulation continues.\n   **   ~~~   ** ... adjusted Maximum Outdoor Temperature in Heat Recovery Mode = 16.10 C\n   ** Warning ** AirConditioner:VariableRefrigerantFlow = \"5 ZONE VRF SYSTEM 2\", Maximum Outdoor Temperature in Heat Recovery Mode is greater than the maximum temperature in heat pump mode.\n   **   ~~~   ** ...Maximum Outdoor Temperature in Heat Recovery Mode = 27.20 C\n   **   ~~~   ** ...Maximum Outdoor Temperature in Cooling Mode = 50.00 C\n   **   ~~~   ** ...Maximum Outdoor Temperature in Heating Mode = 16.10 C\n   **   ~~~   ** ...Maximum Outdoor Temperature in Heat Recovery Mode reset to lesser of cooling or heating minimum temperature and simulation continues.\n   **   ~~~   ** ... adjusted Maximum Outdoor Temperature in Heat Recovery Mode = 16.10 C\n   ** Warning ** GetDXCoils: Coil:Heating:DX:SingleSpeed=\"5 ZONE DOAS HTG COIL 61 CLG KBTU/HR 3.3COPH\", invalid\n   **   ~~~   ** ...Part Load Fraction Correlation Curve Name = DXHEAT-NECB2011-REF-PLFFPLR has out of range value.\n   **   ~~~   ** ...Curve maximum must be <= 1.0, curve max at PLR = 0.99 is 1.005\n   **   ~~~   ** ...Setting curve maximum to 1.0 and simulation continues.\n   ** Warning ** GetDXCoils: Coil:Heating:DX:SingleSpeed=\"5 ZONE DOAS HTG COIL 61 CLG KBTU/HR 3.3COPH\" curve values\n   **   ~~~   ** ... Defrost Energy Input Ratio Function of Temperature Curve Name = 5 ZONE DOAS HTG COIL DEFROST EIR FUNC OF TEMP CURVE output is not equal to 1.0 (+ or - 10%) at rated conditions.\n   **   ~~~   ** ... Curve output at rated conditions = 0.787\n   ** Warning ** GetDXCoils: Coil:Heating:DX:SingleSpeed=\"5 ZONE DOAS 1 HTG COIL 61 CLG KBTU/HR 3.3COPH\" curve values\n   **   ~~~   ** ... Defrost Energy Input Ratio Function of Temperature Curve Name = 5 ZONE DOAS 1 HTG COIL DEFROST EIR FUNC OF TEMP CURVE output is not equal to 1.0 (+ or - 10%) at rated conditions.\n   **   ~~~   ** ... Curve output at rated conditions = 0.787\n   ** Warning ** GetDXCoils: Coil:Heating:DX:SingleSpeed=\"5 ZONE DOAS 2 HTG COIL 61 CLG KBTU/HR 3.3COPH\" curve values\n   **   ~~~   ** ... Defrost Energy Input Ratio Function of Temperature Curve Name = 5 ZONE DOAS 2 HTG COIL DEFROST EIR FUNC OF TEMP CURVE output is not equal to 1.0 (+ or - 10%) at rated conditions.\n   **   ~~~   ** ... Curve output at rated conditions = 0.787\n   ************* Beginning Plant Sizing Calculations\n   ** Warning ** CalcTwoSpeedDXCoilStandardRating: Did not find an appropriate fan associated with DX coil named = \"5 ZONE DOAS 2SPD DX CLG COIL\". Standard Ratings will not be calculated.\n   ** Warning ** CalcTwoSpeedDXCoilStandardRating: Did not find an appropriate fan associated with DX coil named = \"5 ZONE DOAS 1 2SPD DX CLG COIL\". Standard Ratings will not be calculated.\n   ** Warning ** CalcTwoSpeedDXCoilStandardRating: Did not find an appropriate fan associated with DX coil named = \"5 ZONE DOAS 2 2SPD DX CLG COIL\". Standard Ratings will not be calculated.\n   ** Warning ** AirConditioner:VariableRefrigerantFlow \"5 ZONE VRF SYSTEM\".\n   **   ~~~   ** ...InitVRF: VRF Heat Pump Min/Max Operating Temperature in Heating Mode Limits have been exceeded and VRF system is disabled.\n   **   ~~~   ** ... Outdoor Unit Inlet Air Temperature             = 24.585\n   **   ~~~   ** ... Heating Minimum Outdoor Unit Inlet Temperature = -25.000\n   **   ~~~   ** ... Heating Maximum Outdoor Unit Inlet Temperature = 16.100\n   **   ~~~   ** ... Check VRF Heat Pump Min/Max Outdoor Temperature in Heating Mode limits.\n   **   ~~~   **  During Warmup, Environment=CHICAGO OHARE INTL AP ANN CLG .4% CONDNS DB=>MWB, at Simulation time=07/21 00:00 - 00:10\n   ** Warning ** AirConditioner:VariableRefrigerantFlow \"5 ZONE VRF SYSTEM 1\".\n   **   ~~~   ** ...InitVRF: VRF Heat Pump Min/Max Operating Temperature in Heating Mode Limits have been exceeded and VRF system is disabled.\n   **   ~~~   ** ... Outdoor Unit Inlet Air Temperature             = 24.585\n   **   ~~~   ** ... Heating Minimum Outdoor Unit Inlet Temperature = -25.000\n   **   ~~~   ** ... Heating Maximum Outdoor Unit Inlet Temperature = 16.100\n   **   ~~~   ** ... Check VRF Heat Pump Min/Max Outdoor Temperature in Heating Mode limits.\n   **   ~~~   **  During Warmup, Environment=CHICAGO OHARE INTL AP ANN CLG .4% CONDNS DB=>MWB, at Simulation time=07/21 00:00 - 00:10\n   ** Warning ** AirConditioner:VariableRefrigerantFlow \"5 ZONE VRF SYSTEM 2\".\n   **   ~~~   ** ...InitVRF: VRF Heat Pump Min/Max Operating Temperature in Heating Mode Limits have been exceeded and VRF system is disabled.\n   **   ~~~   ** ... Outdoor Unit Inlet Air Temperature             = 24.585\n   **   ~~~   ** ... Heating Minimum Outdoor Unit Inlet Temperature = -25.000\n   **   ~~~   ** ... Heating Maximum Outdoor Unit Inlet Temperature = 16.100\n   **   ~~~   ** ... Check VRF Heat Pump Min/Max Outdoor Temperature in Heating Mode limits.\n   **   ~~~   **  During Warmup, Environment=CHICAGO OHARE INTL AP ANN CLG .4% CONDNS DB=>MWB, at Simulation time=07/21 00:00 - 00:10\n   ** Warning ** AirConditioner:VariableRefrigerantFlow \"5 ZONE VRF SYSTEM\".\n   **   ~~~   ** ...InitVRF: VRF Heat Pump Min/Max Operating Temperature in Cooling Mode Limits have been exceeded and VRF system is disabled.\n   **   ~~~   ** ... Outdoor Unit Inlet Air Temperature                 = -20.000\n   **   ~~~   ** ... Cooling Minimum Outdoor Unit Inlet Temperature = -15.000\n   **   ~~~   ** ... Cooling Maximum Outdoor Unit Inlet Temperature = 50.000\n   **   ~~~   ** ... Check VRF Heat Pump Min/Max Outdoor Temperature in Cooling Mode limits.\n   **   ~~~   **  During Warmup, Environment=CHICAGO OHARE INTL AP ANN HTG 99.6% CONDNS DB, at Simulation time=01/21 00:00 - 00:10\n   ** Warning ** AirConditioner:VariableRefrigerantFlow \"5 ZONE VRF SYSTEM 1\".\n   **   ~~~   ** ...InitVRF: VRF Heat Pump Min/Max Operating Temperature in Cooling Mode Limits have been exceeded and VRF system is disabled.\n   **   ~~~   ** ... Outdoor Unit Inlet Air Temperature                 = -20.000\n   **   ~~~   ** ... Cooling Minimum Outdoor Unit Inlet Temperature = -15.000\n   **   ~~~   ** ... Cooling Maximum Outdoor Unit Inlet Temperature = 50.000\n   **   ~~~   ** ... Check VRF Heat Pump Min/Max Outdoor Temperature in Cooling Mode limits.\n   **   ~~~   **  During Warmup, Environment=CHICAGO OHARE INTL AP ANN HTG 99.6% CONDNS DB, at Simulation time=01/21 00:00 - 00:10\n   ** Warning ** AirConditioner:VariableRefrigerantFlow \"5 ZONE VRF SYSTEM 2\".\n   **   ~~~   ** ...InitVRF: VRF Heat Pump Min/Max Operating Temperature in Cooling Mode Limits have been exceeded and VRF system is disabled.\n   **   ~~~   ** ... Outdoor Unit Inlet Air Temperature                 = -20.000\n   **   ~~~   ** ... Cooling Minimum Outdoor Unit Inlet Temperature = -15.000\n   **   ~~~   ** ... Cooling Maximum Outdoor Unit Inlet Temperature = 50.000\n   **   ~~~   ** ... Check VRF Heat Pump Min/Max Outdoor Temperature in Cooling Mode limits.\n   **   ~~~   **  During Warmup, Environment=CHICAGO OHARE INTL AP ANN HTG 99.6% CONDNS DB, at Simulation time=01/21 00:00 - 00:10\n   ** Warning ** Output:Meter: invalid Key Name=\"DISTRICTCOOLING:FACILITY\" - not found.\n   ** Warning ** Output:Meter: invalid Key Name=\"DISTRICTHEATING:FACILITY\" - not found.\n   ** Warning ** Output:Meter:MeterFileOnly requested for \"Electricity:Facility\" (TimeStep), already on \"Output:Meter\". Will report to both eplusout.eso and eplusout.mtr\n   ************* Testing Individual Branch Integrity\n   ************* All Branches passed integrity testing\n   ************* Testing Individual Supply Air Path Integrity\n   ************* All Supply Air Paths passed integrity testing\n   ************* Testing Individual Return Air Path Integrity\n   ************* All Return Air Paths passed integrity testing\n   ************* No node connection errors were found.\n   ************* Beginning Simulation\n   ** Warning ** Processing Monthly Tabular Reports: Variable names not valid for this simulation\n   **   ~~~   ** ...use Output:Diagnostics,DisplayExtraWarnings; to show more details on individual variables.\n   ** Warning ** AirConditioner:VariableRefrigerantFlow \"5 ZONE VRF SYSTEM\".\n   **   ~~~   ** ...InitVRF: VRF Heat Pump Min/Max Outdoor Temperature in Heat Recovery Mode Limits have been exceeded and VRF heat recovery is disabled.\n   **   ~~~   ** ... Outdoor Dry-Bulb Temperature                       = -12.566\n   **   ~~~   ** ... Heat Recovery Minimum Outdoor Dry-Bulb Temperature = -10.000\n   **   ~~~   ** ... Heat Recovery Maximum Outdoor Dry-Bulb Temperature = 16.100\n   **   ~~~   ** ... Check VRF Heat Pump Min/Max Outdoor Temperature in Heat Recovery Mode limits.\n   **   ~~~   **  Environment=RUN PERIOD 1, at Simulation time=01/05 05:00 - 05:10\n   **   ~~~   ** ...the system will operate in heat pump mode when applicable.\n   ** Warning ** AirConditioner:VariableRefrigerantFlow \"5 ZONE VRF SYSTEM 1\".\n   **   ~~~   ** ...InitVRF: VRF Heat Pump Min/Max Outdoor Temperature in Heat Recovery Mode Limits have been exceeded and VRF heat recovery is disabled.\n   **   ~~~   ** ... Outdoor Dry-Bulb Temperature                       = -12.566\n   **   ~~~   ** ... Heat Recovery Minimum Outdoor Dry-Bulb Temperature = -10.000\n   **   ~~~   ** ... Heat Recovery Maximum Outdoor Dry-Bulb Temperature = 16.100\n   **   ~~~   ** ... Check VRF Heat Pump Min/Max Outdoor Temperature in Heat Recovery Mode limits.\n   **   ~~~   **  Environment=RUN PERIOD 1, at Simulation time=01/05 05:00 - 05:10\n   **   ~~~   ** ...the system will operate in heat pump mode when applicable.\n   ** Warning ** AirConditioner:VariableRefrigerantFlow \"5 ZONE VRF SYSTEM 2\".\n   **   ~~~   ** ...InitVRF: VRF Heat Pump Min/Max Outdoor Temperature in Heat Recovery Mode Limits have been exceeded and VRF heat recovery is disabled.\n   **   ~~~   ** ... Outdoor Dry-Bulb Temperature                       = -10.550\n   **   ~~~   ** ... Heat Recovery Minimum Outdoor Dry-Bulb Temperature = -10.000\n   **   ~~~   ** ... Heat Recovery Maximum Outdoor Dry-Bulb Temperature = 16.100\n   **   ~~~   ** ... Check VRF Heat Pump Min/Max Outdoor Temperature in Heat Recovery Mode limits.\n   **   ~~~   **  Environment=RUN PERIOD 1, at Simulation time=01/05 10:25 - 10:30\n   **   ~~~   ** ...the system will operate in heat pump mode when applicable.\n   ** Warning ** The resource referenced by LifeCycleCost:UsePriceEscalation= \"U.S. AVG  COMMERCIAL-ELECTRICITY\" has no energy cost. \n   **   ~~~   ** ... It is likely that the wrong resource is used. The resource should match the meter used in Utility:Tariff.\n   ** Warning ** The resource referenced by LifeCycleCost:UsePriceEscalation= \"U.S. AVG  COMMERCIAL-DISTILLATE OIL\" has no energy cost. \n   **   ~~~   ** ... It is likely that the wrong resource is used. The resource should match the meter used in Utility:Tariff.\n   ** Warning ** The resource referenced by LifeCycleCost:UsePriceEscalation= \"U.S. AVG  COMMERCIAL-RESIDUAL OIL\" has no energy cost. \n   **   ~~~   ** ... It is likely that the wrong resource is used. The resource should match the meter used in Utility:Tariff.\n   ** Warning ** The resource referenced by LifeCycleCost:UsePriceEscalation= \"U.S. AVG  COMMERCIAL-NATURAL GAS\" has no energy cost. \n   **   ~~~   ** ... It is likely that the wrong resource is used. The resource should match the meter used in Utility:Tariff.\n   ** Warning ** The resource referenced by LifeCycleCost:UsePriceEscalation= \"U.S. AVG  COMMERCIAL-COAL\" has no energy cost. \n   **   ~~~   ** ... It is likely that the wrong resource is used. The resource should match the meter used in Utility:Tariff.\n   ************* Simulation Error Summary *************\n   ************* There are 7 unused schedules in input.\n   ************* There are 7 unused week schedules in input.\n   ************* There are 28 unused day schedules in input.\n   ************* Use Output:Diagnostics,DisplayUnusedSchedules; to see them.\n   *************\n   ************* ===== Recurring Error Summary =====\n   ************* The following recurring error messages occurred.\n   *************\n   *************  ** Warning ** AirConditioner:VariableRefrigerantFlow \"5 ZONE VRF SYSTEM\" -- Exceeded VRF Heat Pump min/max heating temperature limit error continues...\n   *************  **   ~~~   **   This error occurred 387 total times;\n   *************  **   ~~~   **   during Warmup 4 times;\n   *************  **   ~~~   **   during Sizing 0 times.\n   *************  **   ~~~   **   Max=24.69  Min=16.133333\n   *************\n   *************  ** Warning ** AirConditioner:VariableRefrigerantFlow \"5 ZONE VRF SYSTEM 1\" -- Exceeded VRF Heat Pump min/max heating temperature limit error continues...\n   *************  **   ~~~   **   This error occurred 512 total times;\n   *************  **   ~~~   **   during Warmup 4 times;\n   *************  **   ~~~   **   during Sizing 0 times.\n   *************  **   ~~~   **   Max=25.  Min=16.4\n   *************\n   *************  ** Warning ** AirConditioner:VariableRefrigerantFlow \"5 ZONE VRF SYSTEM 2\" -- Exceeded VRF Heat Pump min/max heating temperature limit error continues...\n   *************  **   ~~~   **   This error occurred 559 total times;\n   *************  **   ~~~   **   during Warmup 4 times;\n   *************  **   ~~~   **   during Sizing 0 times.\n   *************  **   ~~~   **   Max=25.  Min=16.5\n   *************\n   *************  ** Warning ** AirConditioner:VariableRefrigerantFlow \"5 ZONE VRF SYSTEM\" -- Exceeded VRF Heat Pump min/max cooling temperature limit error continues...\n   *************  **   ~~~   **   This error occurred 7 total times;\n   *************  **   ~~~   **   during Warmup 2 times;\n   *************  **   ~~~   **   during Sizing 0 times.\n   *************  **   ~~~   **   Max=-15.683333  Min=-20.\n   *************\n   *************  ** Warning ** AirConditioner:VariableRefrigerantFlow \"5 ZONE VRF SYSTEM 1\" -- Exceeded VRF Heat Pump min/max cooling temperature limit error continues...\n   *************  **   ~~~   **   This error occurred 5 total times;\n   *************  **   ~~~   **   during Warmup 2 times;\n   *************  **   ~~~   **   during Sizing 0 times.\n   *************  **   ~~~   **   Max=-16.7  Min=-20.\n   *************\n   *************  ** Warning ** AirConditioner:VariableRefrigerantFlow \"5 ZONE VRF SYSTEM 2\" -- Exceeded VRF Heat Pump min/max cooling temperature limit error continues...\n   *************  **   ~~~   **   This error occurred 2 total times;\n   *************  **   ~~~   **   during Warmup 2 times;\n   *************  **   ~~~   **   during Sizing 0 times.\n   *************  **   ~~~   **   Max=-20.  Min=-20.\n   *************\n   *************  ** Warning ** AirConditioner:VariableRefrigerantFlow \"5 ZONE VRF SYSTEM\" -- Exceeded VRF Heat Recovery min/max outdoor temperature limit error continues...\n   *************  **   ~~~   **   This error occurred 9149 total times;\n   *************  **   ~~~   **   during Warmup 0 times;\n   *************  **   ~~~   **   during Sizing 0 times.\n   *************  **   ~~~   **   Max=17.466667  Min=-20.916667\n   *************\n   *************  ** Warning ** AirConditioner:VariableRefrigerantFlow \"5 ZONE VRF SYSTEM 1\" -- Exceeded VRF Heat Recovery min/max outdoor temperature limit error continues...\n   *************  **   ~~~   **   This error occurred 2380 total times;\n   *************  **   ~~~   **   during Warmup 0 times;\n   *************  **   ~~~   **   during Sizing 0 times.\n   *************  **   ~~~   **   Max=-10.1  Min=-17.616667\n   *************\n   *************  ** Warning ** AirConditioner:VariableRefrigerantFlow \"5 ZONE VRF SYSTEM 2\" -- Exceeded VRF Heat Recovery min/max outdoor temperature limit error continues...\n   *************  **   ~~~   **   This error occurred 1206 total times;\n   *************  **   ~~~   **   during Warmup 0 times;\n   *************  **   ~~~   **   during Sizing 0 times.\n   *************  **   ~~~   **   Max=-10.1  Min=-16.7\n   *************\n   *************\n   ************* ===== Final Error Summary =====\n   ************* The following error categories occurred.  Consider correcting or noting.\n   ************* Nominally Unused Constructions\n   ************* ..The nominally unused constructions warning is provided to alert you to potential conditions that can cause\n   ************* ..extra time during simulation. Each construction is calculated by the algorithm indicated in the HeatBalanceAlgorithm\n   ************* ..object. You may remove the constructions indicated (when you use the DisplayExtraWarnings option).\n   *************\n   ************* EnergyPlus Warmup Error Summary. During Warmup: 0 Warning; 0 Severe Errors.\n   ************* EnergyPlus Sizing Error Summary. During Sizing: 36 Warning; 0 Severe Errors.\n   ************* EnergyPlus Completed Successfully-- 14255 Warning; 0 Severe Errors; Elapsed Time=00hr 00min 56.80sec\n",
   "hash" : "52F3F6EB",
   "seed_file" : "/Users/dgoldwas/Documents/GitHub/NREL/OpenStudio-measures/nrel_published/nze_hvac/tests/output/test_office_vrf_doas_per_story/test_office_vrf_doas_per_story.osm",
   "started_at" : "20190410T050312Z",
   "steps" : [],
   "updated_at" : "20190410T050411Z",
   "weather_file" : "/Users/dgoldwas/Documents/GitHub/NREL/OpenStudio-measures/nrel_published/nze_hvac/tests/output/test_office_vrf_doas_per_story/USA_IL_Chicago-OHare.Intl.AP.725300_TMY3.epw"
}
