{
  "completed_at": "20180213T191430Z",
  "completed_status": "Success",
  "created_at": "2018-02-13 12:11:17 -0700",
  "current_step": 6,
  "description": "Autogenerated 1",
  "eplusout_err": "Program Version,EnergyPlus, Version 8.8.0-7c3bbe4830, YMD=2018.02.13 12:12,IDD_Version 8.8.0\n   ************* IDF Context for following error/warning message:\n   ************* Note -- lines truncated at 300 characters, if necessary...\n   *************   9239 Branch,\n   ************* indicated Name=Zone Office WholeBuilding - Md Office A  - Story Ground PSZ-AC Main Branch\n   ************* Only last 8 lines before error line shown.....\n   *************   9240   Zone Office WholeBuilding - Md Office A  - Story Ground PSZ-AC Main Branch, !- Name\n   *************   9241   ,                                       !- Pressure Drop Curve Name\n   *************   9242   AirLoopHVAC:OutdoorAirSystem,           !- Component Object Type 1\n   *************   9243   Zone Office WholeBuilding - Md Office A  - Story Ground PSZ-AC OA Sys, !- Component Name 1\n   *************   9244   Node 40,                                !- Component Inlet Node Name 1\n   *************   9245   Node 50,                                !- Component Outlet Node Name 1\n   *************   9246   CoilSystem:Cooling:DX,                  !- Component Object Type 2\n   *************   9247   Zone Office WholeBuilding - Md Office A  - Story Ground PSZ-AC 1spd DX AC Clg Coil 22kBtu/hr 9.7SEER CoilSystem, !- Component Name 2\n   ** Warning ** IP: IDF line~9247 Alpha Argument length exceeds maximum, will be truncated=  Zone Office WholeBuilding - Md Office A  - Story Ground PSZ-AC 1spd DX AC Clg Coil 22kBtu/hr 9.7SEER CoilSyste\n   **   ~~~   ** Will be processed as Alpha=ZONE OFFICE WHOLEBUILDING - MD OFFICE A  - STORY GROUND PSZ-AC 1SPD DX AC CLG COIL 22KBTU/HR 9.7SEER COILSYSTEM\n   ************* IDF Context for following error/warning message:\n   ************* Note -- lines truncated at 300 characters, if necessary...\n   *************   9334 CoilSystem:Cooling:DX,\n   ************* indicated Name=Zone Office WholeBuilding - Md Office A  - Story Ground PSZ-AC 1spd DX AC Clg Coil 22kBtu/hr 9.7SEER CoilSystem\n   ************* Only last 1 lines before error line shown.....\n   *************   9335   Zone Office WholeBuilding - Md Office A  - Story Ground PSZ-AC 1spd DX AC Clg Coil 22kBtu/hr 9.7SEER CoilSystem, !- Name\n   ** Warning ** IP: IDF line~9335 Alpha Argument length exceeds maximum, will be truncated=  Zone Office WholeBuilding - Md Office A  - Story Ground PSZ-AC 1spd DX AC Clg Coil 22kBtu/hr 9.7SEER CoilSyste\n   **   ~~~   ** Will be processed as Alpha=ZONE OFFICE WHOLEBUILDING - MD OFFICE A  - STORY GROUND PSZ-AC 1SPD DX AC CLG COIL 22KBTU/HR 9.7SEER COILSYSTEM\n   ************* IDF Context for following error/warning message:\n   ************* Note -- lines truncated at 300 characters, if necessary...\n   *************   9598 Branch,\n   ************* indicated Name=Zone Office WholeBuilding - Md Office A  - Story Mid PSZ-AC Main Branch\n   ************* Only last 8 lines before error line shown.....\n   *************   9599   Zone Office WholeBuilding - Md Office A  - Story Mid PSZ-AC Main Branch, !- Name\n   *************   9600   ,                                       !- Pressure Drop Curve Name\n   *************   9601   AirLoopHVAC:OutdoorAirSystem,           !- Component Object Type 1\n   *************   9602   Zone Office WholeBuilding - Md Office A  - Story Mid PSZ-AC OA Sys, !- Component Name 1\n   *************   9603   Node 172,                               !- Component Inlet Node Name 1\n   *************   9604   Node 182,                               !- Component Outlet Node Name 1\n   *************   9605   CoilSystem:Cooling:DX,                  !- Component Object Type 2\n   *************   9606   Zone Office WholeBuilding - Md Office A  - Story Mid PSZ-AC 1spd DX AC Clg Coil 32kBtu/hr 9.7SEER CoilSystem, !- Component Name 2\n   ** Warning ** IP: IDF line~9606 Alpha Argument length exceeds maximum, will be truncated=  Zone Office WholeBuilding - Md Office A  - Story Mid PSZ-AC 1spd DX AC Clg Coil 32kBtu/hr 9.7SEER CoilSyste\n   **   ~~~   ** Will be processed as Alpha=ZONE OFFICE WHOLEBUILDING - MD OFFICE A  - STORY MID PSZ-AC 1SPD DX AC CLG COIL 32KBTU/HR 9.7SEER COILSYSTEM\n   ************* IDF Context for following error/warning message:\n   ************* Note -- lines truncated at 300 characters, if necessary...\n   *************   9693 CoilSystem:Cooling:DX,\n   ************* indicated Name=Zone Office WholeBuilding - Md Office A  - Story Mid PSZ-AC 1spd DX AC Clg Coil 32kBtu/hr 9.7SEER CoilSystem\n   ************* Only last 1 lines before error line shown.....\n   *************   9694   Zone Office WholeBuilding - Md Office A  - Story Mid PSZ-AC 1spd DX AC Clg Coil 32kBtu/hr 9.7SEER CoilSystem, !- Name\n   ** Warning ** IP: IDF line~9694 Alpha Argument length exceeds maximum, will be truncated=  Zone Office WholeBuilding - Md Office A  - Story Mid PSZ-AC 1spd DX AC Clg Coil 32kBtu/hr 9.7SEER CoilSyste\n   **   ~~~   ** Will be processed as Alpha=ZONE OFFICE WHOLEBUILDING - MD OFFICE A  - STORY MID PSZ-AC 1SPD DX AC CLG COIL 32KBTU/HR 9.7SEER COILSYSTEM\n   ************* IDF Context for following error/warning message:\n   ************* Note -- lines truncated at 300 characters, if necessary...\n   *************   9957 Branch,\n   ************* indicated Name=Zone Office WholeBuilding - Md Office A  - Story Top PSZ-AC Main Branch\n   ************* Only last 8 lines before error line shown.....\n   *************   9958   Zone Office WholeBuilding - Md Office A  - Story Top PSZ-AC Main Branch, !- Name\n   *************   9959   ,                                       !- Pressure Drop Curve Name\n   *************   9960   AirLoopHVAC:OutdoorAirSystem,           !- Component Object Type 1\n   *************   9961   Zone Office WholeBuilding - Md Office A  - Story Top PSZ-AC OA Sys, !- Component Name 1\n   *************   9962   Node 316,                               !- Component Inlet Node Name 1\n   *************   9963   Node 326,                               !- Component Outlet Node Name 1\n   *************   9964   CoilSystem:Cooling:DX,                  !- Component Object Type 2\n   *************   9965   Zone Office WholeBuilding - Md Office A  - Story Top PSZ-AC 1spd DX AC Clg Coil 42kBtu/hr 9.7SEER CoilSystem, !- Component Name 2\n   ** Warning ** IP: IDF line~9965 Alpha Argument length exceeds maximum, will be truncated=  Zone Office WholeBuilding - Md Office A  - Story Top PSZ-AC 1spd DX AC Clg Coil 42kBtu/hr 9.7SEER CoilSyste\n   **   ~~~   ** Will be processed as Alpha=ZONE OFFICE WHOLEBUILDING - MD OFFICE A  - STORY TOP PSZ-AC 1SPD DX AC CLG COIL 42KBTU/HR 9.7SEER COILSYSTEM\n   ************* IDF Context for following error/warning message:\n   ************* Note -- lines truncated at 300 characters, if necessary...\n   *************  10052 CoilSystem:Cooling:DX,\n   ************* indicated Name=Zone Office WholeBuilding - Md Office A  - Story Top PSZ-AC 1spd DX AC Clg Coil 42kBtu/hr 9.7SEER CoilSystem\n   ************* Only last 1 lines before error line shown.....\n   *************  10053   Zone Office WholeBuilding - Md Office A  - Story Top PSZ-AC 1spd DX AC Clg Coil 42kBtu/hr 9.7SEER CoilSystem, !- Name\n   ** Warning ** IP: IDF line~10053 Alpha Argument length exceeds maximum, will be truncated=  Zone Office WholeBuilding - Md Office A  - Story Top PSZ-AC 1spd DX AC Clg Coil 42kBtu/hr 9.7SEER CoilSyste\n   **   ~~~   ** Will be processed as Alpha=ZONE OFFICE WHOLEBUILDING - MD OFFICE A  - STORY TOP PSZ-AC 1SPD DX AC CLG COIL 42KBTU/HR 9.7SEER COILSYSTEM\n   ************* IDF Context for following error/warning message:\n   ************* Note -- lines truncated at 300 characters, if necessary...\n   *************  10316 Branch,\n   ************* indicated Name=Zone Office WholeBuilding - Md Office A end_a - Story Ground PSZ-AC Main Branch\n   ************* Only last 8 lines before error line shown.....\n   *************  10317   Zone Office WholeBuilding - Md Office A end_a - Story Ground PSZ-AC Main Branch, !- Name\n   *************  10318   ,                                       !- Pressure Drop Curve Name\n   *************  10319   AirLoopHVAC:OutdoorAirSystem,           !- Component Object Type 1\n   *************  10320   Zone Office WholeBuilding - Md Office A end_a - Story Ground PSZ-AC OA Sys, !- Component Name 1\n   *************  10321   Node 100,                               !- Component Inlet Node Name 1\n   *************  10322   Node 110,                               !- Component Outlet Node Name 1\n   *************  10323   CoilSystem:Cooling:DX,                  !- Component Object Type 2\n   *************  10324   Zone Office WholeBuilding - Md Office A end_a - Story Ground PSZ-AC 1spd DX AC Clg Coil 12kBtu/hr 9.7SEER CoilSystem, !- Component Name 2\n   ** Warning ** IP: IDF line~10324 Alpha Argument length exceeds maximum, will be truncated=  Zone Office WholeBuilding - Md Office A end_a - Story Ground PSZ-AC 1spd DX AC Clg Coil 12kBtu/hr 9.7SEER CoilSyste\n   **   ~~~   ** Will be processed as Alpha=ZONE OFFICE WHOLEBUILDING - MD OFFICE A END_A - STORY GROUND PSZ-AC 1SPD DX AC CLG COIL 12KBTU/HR 9.7SEER COILSYSTEM\n   ************* IDF Context for following error/warning message:\n   ************* Note -- lines truncated at 300 characters, if necessary...\n   *************  10411 CoilSystem:Cooling:DX,\n   ************* indicated Name=Zone Office WholeBuilding - Md Office A end_a - Story Ground PSZ-AC 1spd DX AC Clg Coil 12kBtu/hr 9.7SEER CoilSystem\n   ************* Only last 1 lines before error line shown.....\n   *************  10412   Zone Office WholeBuilding - Md Office A end_a - Story Ground PSZ-AC 1spd DX AC Clg Coil 12kBtu/hr 9.7SEER CoilSystem, !- Name\n   ** Warning ** IP: IDF line~10412 Alpha Argument length exceeds maximum, will be truncated=  Zone Office WholeBuilding - Md Office A end_a - Story Ground PSZ-AC 1spd DX AC Clg Coil 12kBtu/hr 9.7SEER CoilSyste\n   **   ~~~   ** Will be processed as Alpha=ZONE OFFICE WHOLEBUILDING - MD OFFICE A END_A - STORY GROUND PSZ-AC 1SPD DX AC CLG COIL 12KBTU/HR 9.7SEER COILSYSTEM\n   ************* IDF Context for following error/warning message:\n   ************* Note -- lines truncated at 300 characters, if necessary...\n   *************  10411 CoilSystem:Cooling:DX,\n   ************* indicated Name=Zone Office WholeBuilding - Md Office A end_a - Story Ground PSZ-AC 1spd DX AC Clg Coil 12kBtu/hr 9.7SEER CoilSystem\n   ************* Only last 7 lines before error line shown.....\n   *************  10412   Zone Office WholeBuilding - Md Office A end_a - Story Ground PSZ-AC 1spd DX AC Clg Coil 12kBtu/hr 9.7SEER CoilSystem, !- Name\n   *************  10413   Always On Discrete,                     !- Availability Schedule Name\n   *************  10414   Node 110,                               !- DX Cooling Coil System Inlet Node Name\n   *************  10415   Node 109,                               !- DX Cooling Coil System Outlet Node Name\n   *************  10416   Node 109,                               !- DX Cooling Coil System Sensor Node Name\n   *************  10417   Coil:Cooling:DX:SingleSpeed,            !- Cooling Coil Object Type\n   *************  10418   Zone Office WholeBuilding - Md Office A end_a - Story Ground PSZ-AC 1spd DX AC Clg Coil 12kBtu/hr 9.7SEER; !- Cooling Coil Name\n   ** Warning ** IP: IDF line~10418 Alpha Argument length exceeds maximum, will be truncated=  Zone Office WholeBuilding - Md Office A end_a - Story Ground PSZ-AC 1spd DX AC Clg Coil 12kBtu/hr 9.7SEE\n   **   ~~~   ** Will be processed as Alpha=ZONE OFFICE WHOLEBUILDING - MD OFFICE A END_A - STORY GROUND PSZ-AC 1SPD DX AC CLG COIL 12KBTU/HR 9.7SEER\n   ************* IDF Context for following error/warning message:\n   ************* Note -- lines truncated at 300 characters, if necessary...\n   *************  10485 Coil:Cooling:DX:SingleSpeed,\n   ************* indicated Name=Zone Office WholeBuilding - Md Office A end_a - Story Ground PSZ-AC 1spd DX AC Clg Coil 12kBtu/hr 9.7SEER\n   ************* Only last 1 lines before error line shown.....\n   *************  10486   Zone Office WholeBuilding - Md Office A end_a - Story Ground PSZ-AC 1spd DX AC Clg Coil 12kBtu/hr 9.7SEER, !- Name\n   ** Warning ** IP: IDF line~10486 Alpha Argument length exceeds maximum, will be truncated=  Zone Office WholeBuilding - Md Office A end_a - Story Ground PSZ-AC 1spd DX AC Clg Coil 12kBtu/hr 9.7SEE\n   **   ~~~   ** Will be processed as Alpha=ZONE OFFICE WHOLEBUILDING - MD OFFICE A END_A - STORY GROUND PSZ-AC 1SPD DX AC CLG COIL 12KBTU/HR 9.7SEER\n   ************* IDF Context for following error/warning message:\n   ************* Note -- lines truncated at 300 characters, if necessary...\n   *************  10675 Branch,\n   ************* indicated Name=Zone Office WholeBuilding - Md Office A end_a - Story Mid PSZ-AC Main Branch\n   ************* Only last 8 lines before error line shown.....\n   *************  10676   Zone Office WholeBuilding - Md Office A end_a - Story Mid PSZ-AC Main Branch, !- Name\n   *************  10677   ,                                       !- Pressure Drop Curve Name\n   *************  10678   AirLoopHVAC:OutdoorAirSystem,           !- Component Object Type 1\n   *************  10679   Zone Office WholeBuilding - Md Office A end_a - Story Mid PSZ-AC OA Sys, !- Component Name 1\n   *************  10680   Node 208,                               !- Component Inlet Node Name 1\n   *************  10681   Node 218,                               !- Component Outlet Node Name 1\n   *************  10682   CoilSystem:Cooling:DX,                  !- Component Object Type 2\n   *************  10683   Zone Office WholeBuilding - Md Office A end_a - Story Mid PSZ-AC 1spd DX AC Clg Coil 14kBtu/hr 9.7SEER CoilSystem, !- Component Name 2\n   ** Warning ** IP: IDF line~10683 Alpha Argument length exceeds maximum, will be truncated=  Zone Office WholeBuilding - Md Office A end_a - Story Mid PSZ-AC 1spd DX AC Clg Coil 14kBtu/hr 9.7SEER CoilSyste\n   **   ~~~   ** Will be processed as Alpha=ZONE OFFICE WHOLEBUILDING - MD OFFICE A END_A - STORY MID PSZ-AC 1SPD DX AC CLG COIL 14KBTU/HR 9.7SEER COILSYSTEM\n   ************* IDF Context for following error/warning message:\n   ************* Note -- lines truncated at 300 characters, if necessary...\n   *************  10770 CoilSystem:Cooling:DX,\n   ************* indicated Name=Zone Office WholeBuilding - Md Office A end_a - Story Mid PSZ-AC 1spd DX AC Clg Coil 14kBtu/hr 9.7SEER CoilSystem\n   ************* Only last 1 lines before error line shown.....\n   *************  10771   Zone Office WholeBuilding - Md Office A end_a - Story Mid PSZ-AC 1spd DX AC Clg Coil 14kBtu/hr 9.7SEER CoilSystem, !- Name\n   ** Warning ** IP: IDF line~10771 Alpha Argument length exceeds maximum, will be truncated=  Zone Office WholeBuilding - Md Office A end_a - Story Mid PSZ-AC 1spd DX AC Clg Coil 14kBtu/hr 9.7SEER CoilSyste\n   **   ~~~   ** Will be processed as Alpha=ZONE OFFICE WHOLEBUILDING - MD OFFICE A END_A - STORY MID PSZ-AC 1SPD DX AC CLG COIL 14KBTU/HR 9.7SEER COILSYSTEM\n   ************* IDF Context for following error/warning message:\n   ************* Note -- lines truncated at 300 characters, if necessary...\n   *************  10770 CoilSystem:Cooling:DX,\n   ************* indicated Name=Zone Office WholeBuilding - Md Office A end_a - Story Mid PSZ-AC 1spd DX AC Clg Coil 14kBtu/hr 9.7SEER CoilSystem\n   ************* Only last 7 lines before error line shown.....\n   *************  10771   Zone Office WholeBuilding - Md Office A end_a - Story Mid PSZ-AC 1spd DX AC Clg Coil 14kBtu/hr 9.7SEER CoilSystem, !- Name\n   *************  10772   Always On Discrete,                     !- Availability Schedule Name\n   *************  10773   Node 218,                               !- DX Cooling Coil System Inlet Node Name\n   *************  10774   Node 217,                               !- DX Cooling Coil System Outlet Node Name\n   *************  10775   Node 217,                               !- DX Cooling Coil System Sensor Node Name\n   *************  10776   Coil:Cooling:DX:SingleSpeed,            !- Cooling Coil Object Type\n   *************  10777   Zone Office WholeBuilding - Md Office A end_a - Story Mid PSZ-AC 1spd DX AC Clg Coil 14kBtu/hr 9.7SEER; !- Cooling Coil Name\n   ** Warning ** IP: IDF line~10777 Alpha Argument length exceeds maximum, will be truncated=  Zone Office WholeBuilding - Md Office A end_a - Story Mid PSZ-AC 1spd DX AC Clg Coil 14kBtu/hr 9.7SEE\n   **   ~~~   ** Will be processed as Alpha=ZONE OFFICE WHOLEBUILDING - MD OFFICE A END_A - STORY MID PSZ-AC 1SPD DX AC CLG COIL 14KBTU/HR 9.7SEER\n   ************* IDF Context for following error/warning message:\n   ************* Note -- lines truncated at 300 characters, if necessary...\n   *************  10844 Coil:Cooling:DX:SingleSpeed,\n   ************* indicated Name=Zone Office WholeBuilding - Md Office A end_a - Story Mid PSZ-AC 1spd DX AC Clg Coil 14kBtu/hr 9.7SEER\n   ************* Only last 1 lines before error line shown.....\n   *************  10845   Zone Office WholeBuilding - Md Office A end_a - Story Mid PSZ-AC 1spd DX AC Clg Coil 14kBtu/hr 9.7SEER, !- Name\n   ** Warning ** IP: IDF line~10845 Alpha Argument length exceeds maximum, will be truncated=  Zone Office WholeBuilding - Md Office A end_a - Story Mid PSZ-AC 1spd DX AC Clg Coil 14kBtu/hr 9.7SEE\n   **   ~~~   ** Will be processed as Alpha=ZONE OFFICE WHOLEBUILDING - MD OFFICE A END_A - STORY MID PSZ-AC 1SPD DX AC CLG COIL 14KBTU/HR 9.7SEER\n   ************* IDF Context for following error/warning message:\n   ************* Note -- lines truncated at 300 characters, if necessary...\n   *************  11034 Branch,\n   ************* indicated Name=Zone Office WholeBuilding - Md Office A end_a - Story Top PSZ-AC Main Branch\n   ************* Only last 8 lines before error line shown.....\n   *************  11035   Zone Office WholeBuilding - Md Office A end_a - Story Top PSZ-AC Main Branch, !- Name\n   *************  11036   ,                                       !- Pressure Drop Curve Name\n   *************  11037   AirLoopHVAC:OutdoorAirSystem,           !- Component Object Type 1\n   *************  11038   Zone Office WholeBuilding - Md Office A end_a - Story Top PSZ-AC OA Sys, !- Component Name 1\n   *************  11039   Node 280,                               !- Component Inlet Node Name 1\n   *************  11040   Node 290,                               !- Component Outlet Node Name 1\n   *************  11041   CoilSystem:Cooling:DX,                  !- Component Object Type 2\n   *************  11042   Zone Office WholeBuilding - Md Office A end_a - Story Top PSZ-AC 1spd DX AC Clg Coil 16kBtu/hr 9.7SEER CoilSystem, !- Component Name 2\n   ** Warning ** IP: IDF line~11042 Alpha Argument length exceeds maximum, will be truncated=  Zone Office WholeBuilding - Md Office A end_a - Story Top PSZ-AC 1spd DX AC Clg Coil 16kBtu/hr 9.7SEER CoilSyste\n   **   ~~~   ** Will be processed as Alpha=ZONE OFFICE WHOLEBUILDING - MD OFFICE A END_A - STORY TOP PSZ-AC 1SPD DX AC CLG COIL 16KBTU/HR 9.7SEER COILSYSTEM\n   ************* IDF Context for following error/warning message:\n   ************* Note -- lines truncated at 300 characters, if necessary...\n   *************  11129 CoilSystem:Cooling:DX,\n   ************* indicated Name=Zone Office WholeBuilding - Md Office A end_a - Story Top PSZ-AC 1spd DX AC Clg Coil 16kBtu/hr 9.7SEER CoilSystem\n   ************* Only last 1 lines before error line shown.....\n   *************  11130   Zone Office WholeBuilding - Md Office A end_a - Story Top PSZ-AC 1spd DX AC Clg Coil 16kBtu/hr 9.7SEER CoilSystem, !- Name\n   ** Warning ** IP: IDF line~11130 Alpha Argument length exceeds maximum, will be truncated=  Zone Office WholeBuilding - Md Office A end_a - Story Top PSZ-AC 1spd DX AC Clg Coil 16kBtu/hr 9.7SEER CoilSyste\n   **   ~~~   ** Will be processed as Alpha=ZONE OFFICE WHOLEBUILDING - MD OFFICE A END_A - STORY TOP PSZ-AC 1SPD DX AC CLG COIL 16KBTU/HR 9.7SEER COILSYSTEM\n   ************* IDF Context for following error/warning message:\n   ************* Note -- lines truncated at 300 characters, if necessary...\n   *************  11129 CoilSystem:Cooling:DX,\n   ************* indicated Name=Zone Office WholeBuilding - Md Office A end_a - Story Top PSZ-AC 1spd DX AC Clg Coil 16kBtu/hr 9.7SEER CoilSystem\n   ************* Only last 7 lines before error line shown.....\n   *************  11130   Zone Office WholeBuilding - Md Office A end_a - Story Top PSZ-AC 1spd DX AC Clg Coil 16kBtu/hr 9.7SEER CoilSystem, !- Name\n   *************  11131   Always On Discrete,                     !- Availability Schedule Name\n   *************  11132   Node 290,                               !- DX Cooling Coil System Inlet Node Name\n   *************  11133   Node 289,                               !- DX Cooling Coil System Outlet Node Name\n   *************  11134   Node 289,                               !- DX Cooling Coil System Sensor Node Name\n   *************  11135   Coil:Cooling:DX:SingleSpeed,            !- Cooling Coil Object Type\n   *************  11136   Zone Office WholeBuilding - Md Office A end_a - Story Top PSZ-AC 1spd DX AC Clg Coil 16kBtu/hr 9.7SEER; !- Cooling Coil Name\n   ** Warning ** IP: IDF line~11136 Alpha Argument length exceeds maximum, will be truncated=  Zone Office WholeBuilding - Md Office A end_a - Story Top PSZ-AC 1spd DX AC Clg Coil 16kBtu/hr 9.7SEE\n   **   ~~~   ** Will be processed as Alpha=ZONE OFFICE WHOLEBUILDING - MD OFFICE A END_A - STORY TOP PSZ-AC 1SPD DX AC CLG COIL 16KBTU/HR 9.7SEER\n   ************* IDF Context for following error/warning message:\n   ************* Note -- lines truncated at 300 characters, if necessary...\n   *************  11203 Coil:Cooling:DX:SingleSpeed,\n   ************* indicated Name=Zone Office WholeBuilding - Md Office A end_a - Story Top PSZ-AC 1spd DX AC Clg Coil 16kBtu/hr 9.7SEER\n   ************* Only last 1 lines before error line shown.....\n   *************  11204   Zone Office WholeBuilding - Md Office A end_a - Story Top PSZ-AC 1spd DX AC Clg Coil 16kBtu/hr 9.7SEER, !- Name\n   ** Warning ** IP: IDF line~11204 Alpha Argument length exceeds maximum, will be truncated=  Zone Office WholeBuilding - Md Office A end_a - Story Top PSZ-AC 1spd DX AC Clg Coil 16kBtu/hr 9.7SEE\n   **   ~~~   ** Will be processed as Alpha=ZONE OFFICE WHOLEBUILDING - MD OFFICE A END_A - STORY TOP PSZ-AC 1SPD DX AC CLG COIL 16KBTU/HR 9.7SEER\n   ************* IDF Context for following error/warning message:\n   ************* Note -- lines truncated at 300 characters, if necessary...\n   *************  11393 Branch,\n   ************* indicated Name=Zone Office WholeBuilding - Md Office A end_b - Story Ground PSZ-AC Main Branch\n   ************* Only last 8 lines before error line shown.....\n   *************  11394   Zone Office WholeBuilding - Md Office A end_b - Story Ground PSZ-AC Main Branch, !- Name\n   *************  11395   ,                                       !- Pressure Drop Curve Name\n   *************  11396   AirLoopHVAC:OutdoorAirSystem,           !- Component Object Type 1\n   *************  11397   Zone Office WholeBuilding - Md Office A end_b - Story Ground PSZ-AC OA Sys, !- Component Name 1\n   *************  11398   Node 76,                                !- Component Inlet Node Name 1\n   *************  11399   Node 86,                                !- Component Outlet Node Name 1\n   *************  11400   CoilSystem:Cooling:DX,                  !- Component Object Type 2\n   *************  11401   Zone Office WholeBuilding - Md Office A end_b - Story Ground PSZ-AC 1spd DX AC Clg Coil 10kBtu/hr 9.7SEER CoilSystem, !- Component Name 2\n   ** Warning ** IP: IDF line~11401 Alpha Argument length exceeds maximum, will be truncated=  Zone Office WholeBuilding - Md Office A end_b - Story Ground PSZ-AC 1spd DX AC Clg Coil 10kBtu/hr 9.7SEER CoilSyste\n   **   ~~~   ** Will be processed as Alpha=ZONE OFFICE WHOLEBUILDING - MD OFFICE A END_B - STORY GROUND PSZ-AC 1SPD DX AC CLG COIL 10KBTU/HR 9.7SEER COILSYSTEM\n   ************* IDF Context for following error/warning message:\n   ************* Note -- lines truncated at 300 characters, if necessary...\n   *************  11488 CoilSystem:Cooling:DX,\n   ************* indicated Name=Zone Office WholeBuilding - Md Office A end_b - Story Ground PSZ-AC 1spd DX AC Clg Coil 10kBtu/hr 9.7SEER CoilSystem\n   ************* Only last 1 lines before error line shown.....\n   *************  11489   Zone Office WholeBuilding - Md Office A end_b - Story Ground PSZ-AC 1spd DX AC Clg Coil 10kBtu/hr 9.7SEER CoilSystem, !- Name\n   ** Warning ** IP: IDF line~11489 Alpha Argument length exceeds maximum, will be truncated=  Zone Office WholeBuilding - Md Office A end_b - Story Ground PSZ-AC 1spd DX AC Clg Coil 10kBtu/hr 9.7SEER CoilSyste\n   **   ~~~   ** Will be processed as Alpha=ZONE OFFICE WHOLEBUILDING - MD OFFICE A END_B - STORY GROUND PSZ-AC 1SPD DX AC CLG COIL 10KBTU/HR 9.7SEER COILSYSTEM\n   ************* IDF Context for following error/warning message:\n   ************* Note -- lines truncated at 300 characters, if necessary...\n   *************  11488 CoilSystem:Cooling:DX,\n   ************* indicated Name=Zone Office WholeBuilding - Md Office A end_b - Story Ground PSZ-AC 1spd DX AC Clg Coil 10kBtu/hr 9.7SEER CoilSystem\n   ************* Only last 7 lines before error line shown.....\n   *************  11489   Zone Office WholeBuilding - Md Office A end_b - Story Ground PSZ-AC 1spd DX AC Clg Coil 10kBtu/hr 9.7SEER CoilSystem, !- Name\n   *************  11490   Always On Discrete,                     !- Availability Schedule Name\n   *************  11491   Node 86,                                !- DX Cooling Coil System Inlet Node Name\n   *************  11492   Node 85,                                !- DX Cooling Coil System Outlet Node Name\n   *************  11493   Node 85,                                !- DX Cooling Coil System Sensor Node Name\n   *************  11494   Coil:Cooling:DX:SingleSpeed,            !- Cooling Coil Object Type\n   *************  11495   Zone Office WholeBuilding - Md Office A end_b - Story Ground PSZ-AC 1spd DX AC Clg Coil 10kBtu/hr 9.7SEER; !- Cooling Coil Name\n   ** Warning ** IP: IDF line~11495 Alpha Argument length exceeds maximum, will be truncated=  Zone Office WholeBuilding - Md Office A end_b - Story Ground PSZ-AC 1spd DX AC Clg Coil 10kBtu/hr 9.7SEE\n   **   ~~~   ** Will be processed as Alpha=ZONE OFFICE WHOLEBUILDING - MD OFFICE A END_B - STORY GROUND PSZ-AC 1SPD DX AC CLG COIL 10KBTU/HR 9.7SEER\n   ************* IDF Context for following error/warning message:\n   ************* Note -- lines truncated at 300 characters, if necessary...\n   *************  11562 Coil:Cooling:DX:SingleSpeed,\n   ************* indicated Name=Zone Office WholeBuilding - Md Office A end_b - Story Ground PSZ-AC 1spd DX AC Clg Coil 10kBtu/hr 9.7SEER\n   ************* Only last 1 lines before error line shown.....\n   *************  11563   Zone Office WholeBuilding - Md Office A end_b - Story Ground PSZ-AC 1spd DX AC Clg Coil 10kBtu/hr 9.7SEER, !- Name\n   ** Warning ** IP: IDF line~11563 Alpha Argument length exceeds maximum, will be truncated=  Zone Office WholeBuilding - Md Office A end_b - Story Ground PSZ-AC 1spd DX AC Clg Coil 10kBtu/hr 9.7SEE\n   **   ~~~   ** Will be processed as Alpha=ZONE OFFICE WHOLEBUILDING - MD OFFICE A END_B - STORY GROUND PSZ-AC 1SPD DX AC CLG COIL 10KBTU/HR 9.7SEER\n   ************* IDF Context for following error/warning message:\n   ************* Note -- lines truncated at 300 characters, if necessary...\n   *************  11752 Branch,\n   ************* indicated Name=Zone Office WholeBuilding - Md Office A end_b - Story Mid PSZ-AC Main Branch\n   ************* Only last 8 lines before error line shown.....\n   *************  11753   Zone Office WholeBuilding - Md Office A end_b - Story Mid PSZ-AC Main Branch, !- Name\n   *************  11754   ,                                       !- Pressure Drop Curve Name\n   *************  11755   AirLoopHVAC:OutdoorAirSystem,           !- Component Object Type 1\n   *************  11756   Zone Office WholeBuilding - Md Office A end_b - Story Mid PSZ-AC OA Sys, !- Component Name 1\n   *************  11757   Node 148,                               !- Component Inlet Node Name 1\n   *************  11758   Node 158,                               !- Component Outlet Node Name 1\n   *************  11759   CoilSystem:Cooling:DX,                  !- Component Object Type 2\n   *************  11760   Zone Office WholeBuilding - Md Office A end_b - Story Mid PSZ-AC 1spd DX AC Clg Coil 12kBtu/hr 9.7SEER CoilSystem, !- Component Name 2\n   ** Warning ** IP: IDF line~11760 Alpha Argument length exceeds maximum, will be truncated=  Zone Office WholeBuilding - Md Office A end_b - Story Mid PSZ-AC 1spd DX AC Clg Coil 12kBtu/hr 9.7SEER CoilSyste\n   **   ~~~   ** Will be processed as Alpha=ZONE OFFICE WHOLEBUILDING - MD OFFICE A END_B - STORY MID PSZ-AC 1SPD DX AC CLG COIL 12KBTU/HR 9.7SEER COILSYSTEM\n   ************* IDF Context for following error/warning message:\n   ************* Note -- lines truncated at 300 characters, if necessary...\n   *************  11847 CoilSystem:Cooling:DX,\n   ************* indicated Name=Zone Office WholeBuilding - Md Office A end_b - Story Mid PSZ-AC 1spd DX AC Clg Coil 12kBtu/hr 9.7SEER CoilSystem\n   ************* Only last 1 lines before error line shown.....\n   *************  11848   Zone Office WholeBuilding - Md Office A end_b - Story Mid PSZ-AC 1spd DX AC Clg Coil 12kBtu/hr 9.7SEER CoilSystem, !- Name\n   ** Warning ** IP: IDF line~11848 Alpha Argument length exceeds maximum, will be truncated=  Zone Office WholeBuilding - Md Office A end_b - Story Mid PSZ-AC 1spd DX AC Clg Coil 12kBtu/hr 9.7SEER CoilSyste\n   **   ~~~   ** Will be processed as Alpha=ZONE OFFICE WHOLEBUILDING - MD OFFICE A END_B - STORY MID PSZ-AC 1SPD DX AC CLG COIL 12KBTU/HR 9.7SEER COILSYSTEM\n   ************* IDF Context for following error/warning message:\n   ************* Note -- lines truncated at 300 characters, if necessary...\n   *************  11847 CoilSystem:Cooling:DX,\n   ************* indicated Name=Zone Office WholeBuilding - Md Office A end_b - Story Mid PSZ-AC 1spd DX AC Clg Coil 12kBtu/hr 9.7SEER CoilSystem\n   ************* Only last 7 lines before error line shown.....\n   *************  11848   Zone Office WholeBuilding - Md Office A end_b - Story Mid PSZ-AC 1spd DX AC Clg Coil 12kBtu/hr 9.7SEER CoilSystem, !- Name\n   *************  11849   Always On Discrete,                     !- Availability Schedule Name\n   *************  11850   Node 158,                               !- DX Cooling Coil System Inlet Node Name\n   *************  11851   Node 157,                               !- DX Cooling Coil System Outlet Node Name\n   *************  11852   Node 157,                               !- DX Cooling Coil System Sensor Node Name\n   *************  11853   Coil:Cooling:DX:SingleSpeed,            !- Cooling Coil Object Type\n   *************  11854   Zone Office WholeBuilding - Md Office A end_b - Story Mid PSZ-AC 1spd DX AC Clg Coil 12kBtu/hr 9.7SEER; !- Cooling Coil Name\n   ** Warning ** IP: IDF line~11854 Alpha Argument length exceeds maximum, will be truncated=  Zone Office WholeBuilding - Md Office A end_b - Story Mid PSZ-AC 1spd DX AC Clg Coil 12kBtu/hr 9.7SEE\n   **   ~~~   ** Will be processed as Alpha=ZONE OFFICE WHOLEBUILDING - MD OFFICE A END_B - STORY MID PSZ-AC 1SPD DX AC CLG COIL 12KBTU/HR 9.7SEER\n   ************* IDF Context for following error/warning message:\n   ************* Note -- lines truncated at 300 characters, if necessary...\n   *************  11921 Coil:Cooling:DX:SingleSpeed,\n   ************* indicated Name=Zone Office WholeBuilding - Md Office A end_b - Story Mid PSZ-AC 1spd DX AC Clg Coil 12kBtu/hr 9.7SEER\n   ************* Only last 1 lines before error line shown.....\n   *************  11922   Zone Office WholeBuilding - Md Office A end_b - Story Mid PSZ-AC 1spd DX AC Clg Coil 12kBtu/hr 9.7SEER, !- Name\n   ** Warning ** IP: IDF line~11922 Alpha Argument length exceeds maximum, will be truncated=  Zone Office WholeBuilding - Md Office A end_b - Story Mid PSZ-AC 1spd DX AC Clg Coil 12kBtu/hr 9.7SEE\n   **   ~~~   ** Will be processed as Alpha=ZONE OFFICE WHOLEBUILDING - MD OFFICE A END_B - STORY MID PSZ-AC 1SPD DX AC CLG COIL 12KBTU/HR 9.7SEER\n   ************* IDF Context for following error/warning message:\n   ************* Note -- lines truncated at 300 characters, if necessary...\n   *************  12111 Branch,\n   ************* indicated Name=Zone Office WholeBuilding - Md Office A end_b - Story Top PSZ-AC Main Branch\n   ************* Only last 8 lines before error line shown.....\n   *************  12112   Zone Office WholeBuilding - Md Office A end_b - Story Top PSZ-AC Main Branch, !- Name\n   *************  12113   ,                                       !- Pressure Drop Curve Name\n   *************  12114   AirLoopHVAC:OutdoorAirSystem,           !- Component Object Type 1\n   *************  12115   Zone Office WholeBuilding - Md Office A end_b - Story Top PSZ-AC OA Sys, !- Component Name 1\n   *************  12116   Node 256,                               !- Component Inlet Node Name 1\n   *************  12117   Node 266,                               !- Component Outlet Node Name 1\n   *************  12118   CoilSystem:Cooling:DX,                  !- Component Object Type 2\n   *************  12119   Zone Office WholeBuilding - Md Office A end_b - Story Top PSZ-AC 1spd DX AC Clg Coil 14kBtu/hr 9.7SEER CoilSystem, !- Component Name 2\n   ** Warning ** IP: IDF line~12119 Alpha Argument length exceeds maximum, will be truncated=  Zone Office WholeBuilding - Md Office A end_b - Story Top PSZ-AC 1spd DX AC Clg Coil 14kBtu/hr 9.7SEER CoilSyste\n   **   ~~~   ** Will be processed as Alpha=ZONE OFFICE WHOLEBUILDING - MD OFFICE A END_B - STORY TOP PSZ-AC 1SPD DX AC CLG COIL 14KBTU/HR 9.7SEER COILSYSTEM\n   ************* IDF Context for following error/warning message:\n   ************* Note -- lines truncated at 300 characters, if necessary...\n   *************  12206 CoilSystem:Cooling:DX,\n   ************* indicated Name=Zone Office WholeBuilding - Md Office A end_b - Story Top PSZ-AC 1spd DX AC Clg Coil 14kBtu/hr 9.7SEER CoilSystem\n   ************* Only last 1 lines before error line shown.....\n   *************  12207   Zone Office WholeBuilding - Md Office A end_b - Story Top PSZ-AC 1spd DX AC Clg Coil 14kBtu/hr 9.7SEER CoilSystem, !- Name\n   ** Warning ** IP: IDF line~12207 Alpha Argument length exceeds maximum, will be truncated=  Zone Office WholeBuilding - Md Office A end_b - Story Top PSZ-AC 1spd DX AC Clg Coil 14kBtu/hr 9.7SEER CoilSyste\n   **   ~~~   ** Will be processed as Alpha=ZONE OFFICE WHOLEBUILDING - MD OFFICE A END_B - STORY TOP PSZ-AC 1SPD DX AC CLG COIL 14KBTU/HR 9.7SEER COILSYSTEM\n   ************* IDF Context for following error/warning message:\n   ************* Note -- lines truncated at 300 characters, if necessary...\n   *************  12206 CoilSystem:Cooling:DX,\n   ************* indicated Name=Zone Office WholeBuilding - Md Office A end_b - Story Top PSZ-AC 1spd DX AC Clg Coil 14kBtu/hr 9.7SEER CoilSystem\n   ************* Only last 7 lines before error line shown.....\n   *************  12207   Zone Office WholeBuilding - Md Office A end_b - Story Top PSZ-AC 1spd DX AC Clg Coil 14kBtu/hr 9.7SEER CoilSystem, !- Name\n   *************  12208   Always On Discrete,                     !- Availability Schedule Name\n   *************  12209   Node 266,                               !- DX Cooling Coil System Inlet Node Name\n   *************  12210   Node 265,                               !- DX Cooling Coil System Outlet Node Name\n   *************  12211   Node 265,                               !- DX Cooling Coil System Sensor Node Name\n   *************  12212   Coil:Cooling:DX:SingleSpeed,            !- Cooling Coil Object Type\n   *************  12213   Zone Office WholeBuilding - Md Office A end_b - Story Top PSZ-AC 1spd DX AC Clg Coil 14kBtu/hr 9.7SEER; !- Cooling Coil Name\n   ** Warning ** IP: IDF line~12213 Alpha Argument length exceeds maximum, will be truncated=  Zone Office WholeBuilding - Md Office A end_b - Story Top PSZ-AC 1spd DX AC Clg Coil 14kBtu/hr 9.7SEE\n   **   ~~~   ** Will be processed as Alpha=ZONE OFFICE WHOLEBUILDING - MD OFFICE A END_B - STORY TOP PSZ-AC 1SPD DX AC CLG COIL 14KBTU/HR 9.7SEER\n   ************* IDF Context for following error/warning message:\n   ************* Note -- lines truncated at 300 characters, if necessary...\n   *************  12280 Coil:Cooling:DX:SingleSpeed,\n   ************* indicated Name=Zone Office WholeBuilding - Md Office A end_b - Story Top PSZ-AC 1spd DX AC Clg Coil 14kBtu/hr 9.7SEER\n   ************* Only last 1 lines before error line shown.....\n   *************  12281   Zone Office WholeBuilding - Md Office A end_b - Story Top PSZ-AC 1spd DX AC Clg Coil 14kBtu/hr 9.7SEER, !- Name\n   ** Warning ** IP: IDF line~12281 Alpha Argument length exceeds maximum, will be truncated=  Zone Office WholeBuilding - Md Office A end_b - Story Top PSZ-AC 1spd DX AC Clg Coil 14kBtu/hr 9.7SEE\n   **   ~~~   ** Will be processed as Alpha=ZONE OFFICE WHOLEBUILDING - MD OFFICE A END_B - STORY TOP PSZ-AC 1SPD DX AC CLG COIL 14KBTU/HR 9.7SEER\n   ************* IDF Context for following error/warning message:\n   ************* Note -- lines truncated at 300 characters, if necessary...\n   *************  12470 Branch,\n   ************* indicated Name=Zone Office WholeBuilding - Md Office B  - Story Ground PSZ-AC Main Branch\n   ************* Only last 8 lines before error line shown.....\n   *************  12471   Zone Office WholeBuilding - Md Office B  - Story Ground PSZ-AC Main Branch, !- Name\n   *************  12472   ,                                       !- Pressure Drop Curve Name\n   *************  12473   AirLoopHVAC:OutdoorAirSystem,           !- Component Object Type 1\n   *************  12474   Zone Office WholeBuilding - Md Office B  - Story Ground PSZ-AC OA Sys, !- Component Name 1\n   *************  12475   Node 52,                                !- Component Inlet Node Name 1\n   *************  12476   Node 62,                                !- Component Outlet Node Name 1\n   *************  12477   CoilSystem:Cooling:DX,                  !- Component Object Type 2\n   *************  12478   Zone Office WholeBuilding - Md Office B  - Story Ground PSZ-AC 1spd DX AC Clg Coil 113kBtu/hr 10.3EER CoilSystem, !- Component Name 2\n   ** Warning ** IP: IDF line~12478 Alpha Argument length exceeds maximum, will be truncated=  Zone Office WholeBuilding - Md Office B  - Story Ground PSZ-AC 1spd DX AC Clg Coil 113kBtu/hr 10.3EER CoilSyste\n   **   ~~~   ** Will be processed as Alpha=ZONE OFFICE WHOLEBUILDING - MD OFFICE B  - STORY GROUND PSZ-AC 1SPD DX AC CLG COIL 113KBTU/HR 10.3EER COILSYSTEM\n   ************* IDF Context for following error/warning message:\n   ************* Note -- lines truncated at 300 characters, if necessary...\n   *************  12565 CoilSystem:Cooling:DX,\n   ************* indicated Name=Zone Office WholeBuilding - Md Office B  - Story Ground PSZ-AC 1spd DX AC Clg Coil 113kBtu/hr 10.3EER CoilSystem\n   ************* Only last 1 lines before error line shown.....\n   *************  12566   Zone Office WholeBuilding - Md Office B  - Story Ground PSZ-AC 1spd DX AC Clg Coil 113kBtu/hr 10.3EER CoilSystem, !- Name\n   ** Warning ** IP: IDF line~12566 Alpha Argument length exceeds maximum, will be truncated=  Zone Office WholeBuilding - Md Office B  - Story Ground PSZ-AC 1spd DX AC Clg Coil 113kBtu/hr 10.3EER CoilSyste\n   **   ~~~   ** Will be processed as Alpha=ZONE OFFICE WHOLEBUILDING - MD OFFICE B  - STORY GROUND PSZ-AC 1SPD DX AC CLG COIL 113KBTU/HR 10.3EER COILSYSTEM\n   ************* IDF Context for following error/warning message:\n   ************* Note -- lines truncated at 300 characters, if necessary...\n   *************  12565 CoilSystem:Cooling:DX,\n   ************* indicated Name=Zone Office WholeBuilding - Md Office B  - Story Ground PSZ-AC 1spd DX AC Clg Coil 113kBtu/hr 10.3EER CoilSystem\n   ************* Only last 7 lines before error line shown.....\n   *************  12566   Zone Office WholeBuilding - Md Office B  - Story Ground PSZ-AC 1spd DX AC Clg Coil 113kBtu/hr 10.3EER CoilSystem, !- Name\n   *************  12567   Always On Discrete,                     !- Availability Schedule Name\n   *************  12568   Node 62,                                !- DX Cooling Coil System Inlet Node Name\n   *************  12569   Node 61,                                !- DX Cooling Coil System Outlet Node Name\n   *************  12570   Node 61,                                !- DX Cooling Coil System Sensor Node Name\n   *************  12571   Coil:Cooling:DX:SingleSpeed,            !- Cooling Coil Object Type\n   *************  12572   Zone Office WholeBuilding - Md Office B  - Story Ground PSZ-AC 1spd DX AC Clg Coil 113kBtu/hr 10.3EER; !- Cooling Coil Name\n   ** Warning ** IP: IDF line~12572 Alpha Argument length exceeds maximum, will be truncated=  Zone Office WholeBuilding - Md Office B  - Story Ground PSZ-AC 1spd DX AC Clg Coil 113kBtu/hr 10.3EE\n   **   ~~~   ** Will be processed as Alpha=ZONE OFFICE WHOLEBUILDING - MD OFFICE B  - STORY GROUND PSZ-AC 1SPD DX AC CLG COIL 113KBTU/HR 10.3EER\n   ************* IDF Context for following error/warning message:\n   ************* Note -- lines truncated at 300 characters, if necessary...\n   *************  12639 Coil:Cooling:DX:SingleSpeed,\n   ************* indicated Name=Zone Office WholeBuilding - Md Office B  - Story Ground PSZ-AC 1spd DX AC Clg Coil 113kBtu/hr 10.3EER\n   ************* Only last 1 lines before error line shown.....\n   *************  12640   Zone Office WholeBuilding - Md Office B  - Story Ground PSZ-AC 1spd DX AC Clg Coil 113kBtu/hr 10.3EER, !- Name\n   ** Warning ** IP: IDF line~12640 Alpha Argument length exceeds maximum, will be truncated=  Zone Office WholeBuilding - Md Office B  - Story Ground PSZ-AC 1spd DX AC Clg Coil 113kBtu/hr 10.3EE\n   **   ~~~   ** Will be processed as Alpha=ZONE OFFICE WHOLEBUILDING - MD OFFICE B  - STORY GROUND PSZ-AC 1SPD DX AC CLG COIL 113KBTU/HR 10.3EER\n   ************* IDF Context for following error/warning message:\n   ************* Note -- lines truncated at 300 characters, if necessary...\n   *************  12829 Branch,\n   ************* indicated Name=Zone Office WholeBuilding - Md Office B  - Story Mid PSZ-AC Main Branch\n   ************* Only last 8 lines before error line shown.....\n   *************  12830   Zone Office WholeBuilding - Md Office B  - Story Mid PSZ-AC Main Branch, !- Name\n   *************  12831   ,                                       !- Pressure Drop Curve Name\n   *************  12832   AirLoopHVAC:OutdoorAirSystem,           !- Component Object Type 1\n   *************  12833   Zone Office WholeBuilding - Md Office B  - Story Mid PSZ-AC OA Sys, !- Component Name 1\n   *************  12834   Node 232,                               !- Component Inlet Node Name 1\n   *************  12835   Node 242,                               !- Component Outlet Node Name 1\n   *************  12836   CoilSystem:Cooling:DX,                  !- Component Object Type 2\n   *************  12837   Zone Office WholeBuilding - Md Office B  - Story Mid PSZ-AC 1spd DX AC Clg Coil 37kBtu/hr 9.7SEER CoilSystem, !- Component Name 2\n   ** Warning ** IP: IDF line~12837 Alpha Argument length exceeds maximum, will be truncated=  Zone Office WholeBuilding - Md Office B  - Story Mid PSZ-AC 1spd DX AC Clg Coil 37kBtu/hr 9.7SEER CoilSyste\n   **   ~~~   ** Will be processed as Alpha=ZONE OFFICE WHOLEBUILDING - MD OFFICE B  - STORY MID PSZ-AC 1SPD DX AC CLG COIL 37KBTU/HR 9.7SEER COILSYSTEM\n   ************* IDF Context for following error/warning message:\n   ************* Note -- lines truncated at 300 characters, if necessary...\n   *************  12924 CoilSystem:Cooling:DX,\n   ************* indicated Name=Zone Office WholeBuilding - Md Office B  - Story Mid PSZ-AC 1spd DX AC Clg Coil 37kBtu/hr 9.7SEER CoilSystem\n   ************* Only last 1 lines before error line shown.....\n   *************  12925   Zone Office WholeBuilding - Md Office B  - Story Mid PSZ-AC 1spd DX AC Clg Coil 37kBtu/hr 9.7SEER CoilSystem, !- Name\n   ** Warning ** IP: IDF line~12925 Alpha Argument length exceeds maximum, will be truncated=  Zone Office WholeBuilding - Md Office B  - Story Mid PSZ-AC 1spd DX AC Clg Coil 37kBtu/hr 9.7SEER CoilSyste\n   **   ~~~   ** Will be processed as Alpha=ZONE OFFICE WHOLEBUILDING - MD OFFICE B  - STORY MID PSZ-AC 1SPD DX AC CLG COIL 37KBTU/HR 9.7SEER COILSYSTEM\n   ************* IDF Context for following error/warning message:\n   ************* Note -- lines truncated at 300 characters, if necessary...\n   *************  13188 Branch,\n   ************* indicated Name=Zone Office WholeBuilding - Md Office B  - Story Top PSZ-AC Main Branch\n   ************* Only last 8 lines before error line shown.....\n   *************  13189   Zone Office WholeBuilding - Md Office B  - Story Top PSZ-AC Main Branch, !- Name\n   *************  13190   ,                                       !- Pressure Drop Curve Name\n   *************  13191   AirLoopHVAC:OutdoorAirSystem,           !- Component Object Type 1\n   *************  13192   Zone Office WholeBuilding - Md Office B  - Story Top PSZ-AC OA Sys, !- Component Name 1\n   *************  13193   Node 292,                               !- Component Inlet Node Name 1\n   *************  13194   Node 302,                               !- Component Outlet Node Name 1\n   *************  13195   CoilSystem:Cooling:DX,                  !- Component Object Type 2\n   *************  13196   Zone Office WholeBuilding - Md Office B  - Story Top PSZ-AC 1spd DX AC Clg Coil 51kBtu/hr 9.7SEER CoilSystem, !- Component Name 2\n   ** Warning ** IP: IDF line~13196 Alpha Argument length exceeds maximum, will be truncated=  Zone Office WholeBuilding - Md Office B  - Story Top PSZ-AC 1spd DX AC Clg Coil 51kBtu/hr 9.7SEER CoilSyste\n   **   ~~~   ** Will be processed as Alpha=ZONE OFFICE WHOLEBUILDING - MD OFFICE B  - STORY TOP PSZ-AC 1SPD DX AC CLG COIL 51KBTU/HR 9.7SEER COILSYSTEM\n   ************* IDF Context for following error/warning message:\n   ************* Note -- lines truncated at 300 characters, if necessary...\n   *************  13283 CoilSystem:Cooling:DX,\n   ************* indicated Name=Zone Office WholeBuilding - Md Office B  - Story Top PSZ-AC 1spd DX AC Clg Coil 51kBtu/hr 9.7SEER CoilSystem\n   ************* Only last 1 lines before error line shown.....\n   *************  13284   Zone Office WholeBuilding - Md Office B  - Story Top PSZ-AC 1spd DX AC Clg Coil 51kBtu/hr 9.7SEER CoilSystem, !- Name\n   ** Warning ** IP: IDF line~13284 Alpha Argument length exceeds maximum, will be truncated=  Zone Office WholeBuilding - Md Office B  - Story Top PSZ-AC 1spd DX AC Clg Coil 51kBtu/hr 9.7SEER CoilSyste\n   **   ~~~   ** Will be processed as Alpha=ZONE OFFICE WHOLEBUILDING - MD OFFICE B  - STORY TOP PSZ-AC 1SPD DX AC CLG COIL 51KBTU/HR 9.7SEER COILSYSTEM\n   ************* IDF Context for following error/warning message:\n   ************* Note -- lines truncated at 300 characters, if necessary...\n   *************  13547 Branch,\n   ************* indicated Name=Zone Office WholeBuilding - Md Office B end_a - Story Ground PSZ-AC Main Branch\n   ************* Only last 8 lines before error line shown.....\n   *************  13548   Zone Office WholeBuilding - Md Office B end_a - Story Ground PSZ-AC Main Branch, !- Name\n   *************  13549   ,                                       !- Pressure Drop Curve Name\n   *************  13550   AirLoopHVAC:OutdoorAirSystem,           !- Component Object Type 1\n   *************  13551   Zone Office WholeBuilding - Md Office B end_a - Story Ground PSZ-AC OA Sys, !- Component Name 1\n   *************  13552   Node 112,                               !- Component Inlet Node Name 1\n   *************  13553   Node 122,                               !- Component Outlet Node Name 1\n   *************  13554   CoilSystem:Cooling:DX,                  !- Component Object Type 2\n   *************  13555   Zone Office WholeBuilding - Md Office B end_a - Story Ground PSZ-AC 1spd DX AC Clg Coil 22kBtu/hr 9.7SEER CoilSystem, !- Component Name 2\n   ** Warning ** IP: IDF line~13555 Alpha Argument length exceeds maximum, will be truncated=  Zone Office WholeBuilding - Md Office B end_a - Story Ground PSZ-AC 1spd DX AC Clg Coil 22kBtu/hr 9.7SEER CoilSyste\n   **   ~~~   ** Will be processed as Alpha=ZONE OFFICE WHOLEBUILDING - MD OFFICE B END_A - STORY GROUND PSZ-AC 1SPD DX AC CLG COIL 22KBTU/HR 9.7SEER COILSYSTEM\n   ************* IDF Context for following error/warning message:\n   ************* Note -- lines truncated at 300 characters, if necessary...\n   *************  13642 CoilSystem:Cooling:DX,\n   ************* indicated Name=Zone Office WholeBuilding - Md Office B end_a - Story Ground PSZ-AC 1spd DX AC Clg Coil 22kBtu/hr 9.7SEER CoilSystem\n   ************* Only last 1 lines before error line shown.....\n   *************  13643   Zone Office WholeBuilding - Md Office B end_a - Story Ground PSZ-AC 1spd DX AC Clg Coil 22kBtu/hr 9.7SEER CoilSystem, !- Name\n   ** Warning ** IP: IDF line~13643 Alpha Argument length exceeds maximum, will be truncated=  Zone Office WholeBuilding - Md Office B end_a - Story Ground PSZ-AC 1spd DX AC Clg Coil 22kBtu/hr 9.7SEER CoilSyste\n   **   ~~~   ** Will be processed as Alpha=ZONE OFFICE WHOLEBUILDING - MD OFFICE B END_A - STORY GROUND PSZ-AC 1SPD DX AC CLG COIL 22KBTU/HR 9.7SEER COILSYSTEM\n   ************* IDF Context for following error/warning message:\n   ************* Note -- lines truncated at 300 characters, if necessary...\n   *************  13642 CoilSystem:Cooling:DX,\n   ************* indicated Name=Zone Office WholeBuilding - Md Office B end_a - Story Ground PSZ-AC 1spd DX AC Clg Coil 22kBtu/hr 9.7SEER CoilSystem\n   ************* Only last 7 lines before error line shown.....\n   *************  13643   Zone Office WholeBuilding - Md Office B end_a - Story Ground PSZ-AC 1spd DX AC Clg Coil 22kBtu/hr 9.7SEER CoilSystem, !- Name\n   *************  13644   Always On Discrete,                     !- Availability Schedule Name\n   *************  13645   Node 122,                               !- DX Cooling Coil System Inlet Node Name\n   *************  13646   Node 121,                               !- DX Cooling Coil System Outlet Node Name\n   *************  13647   Node 121,                               !- DX Cooling Coil System Sensor Node Name\n   *************  13648   Coil:Cooling:DX:SingleSpeed,            !- Cooling Coil Object Type\n   *************  13649   Zone Office WholeBuilding - Md Office B end_a - Story Ground PSZ-AC 1spd DX AC Clg Coil 22kBtu/hr 9.7SEER; !- Cooling Coil Name\n   ** Warning ** IP: IDF line~13649 Alpha Argument length exceeds maximum, will be truncated=  Zone Office WholeBuilding - Md Office B end_a - Story Ground PSZ-AC 1spd DX AC Clg Coil 22kBtu/hr 9.7SEE\n   **   ~~~   ** Will be processed as Alpha=ZONE OFFICE WHOLEBUILDING - MD OFFICE B END_A - STORY GROUND PSZ-AC 1SPD DX AC CLG COIL 22KBTU/HR 9.7SEER\n   ************* IDF Context for following error/warning message:\n   ************* Note -- lines truncated at 300 characters, if necessary...\n   *************  13716 Coil:Cooling:DX:SingleSpeed,\n   ************* indicated Name=Zone Office WholeBuilding - Md Office B end_a - Story Ground PSZ-AC 1spd DX AC Clg Coil 22kBtu/hr 9.7SEER\n   ************* Only last 1 lines before error line shown.....\n   *************  13717   Zone Office WholeBuilding - Md Office B end_a - Story Ground PSZ-AC 1spd DX AC Clg Coil 22kBtu/hr 9.7SEER, !- Name\n   ** Warning ** IP: IDF line~13717 Alpha Argument length exceeds maximum, will be truncated=  Zone Office WholeBuilding - Md Office B end_a - Story Ground PSZ-AC 1spd DX AC Clg Coil 22kBtu/hr 9.7SEE\n   **   ~~~   ** Will be processed as Alpha=ZONE OFFICE WHOLEBUILDING - MD OFFICE B END_A - STORY GROUND PSZ-AC 1SPD DX AC CLG COIL 22KBTU/HR 9.7SEER\n   ************* IDF Context for following error/warning message:\n   ************* Note -- lines truncated at 300 characters, if necessary...\n   *************  13906 Branch,\n   ************* indicated Name=Zone Office WholeBuilding - Md Office B end_a - Story Mid PSZ-AC Main Branch\n   ************* Only last 8 lines before error line shown.....\n   *************  13907   Zone Office WholeBuilding - Md Office B end_a - Story Mid PSZ-AC Main Branch, !- Name\n   *************  13908   ,                                       !- Pressure Drop Curve Name\n   *************  13909   AirLoopHVAC:OutdoorAirSystem,           !- Component Object Type 1\n   *************  13910   Zone Office WholeBuilding - Md Office B end_a - Story Mid PSZ-AC OA Sys, !- Component Name 1\n   *************  13911   Node 184,                               !- Component Inlet Node Name 1\n   *************  13912   Node 194,                               !- Component Outlet Node Name 1\n   *************  13913   CoilSystem:Cooling:DX,                  !- Component Object Type 2\n   *************  13914   Zone Office WholeBuilding - Md Office B end_a - Story Mid PSZ-AC 1spd DX AC Clg Coil 28kBtu/hr 9.7SEER CoilSystem, !- Component Name 2\n   ** Warning ** IP: IDF line~13914 Alpha Argument length exceeds maximum, will be truncated=  Zone Office WholeBuilding - Md Office B end_a - Story Mid PSZ-AC 1spd DX AC Clg Coil 28kBtu/hr 9.7SEER CoilSyste\n   **   ~~~   ** Will be processed as Alpha=ZONE OFFICE WHOLEBUILDING - MD OFFICE B END_A - STORY MID PSZ-AC 1SPD DX AC CLG COIL 28KBTU/HR 9.7SEER COILSYSTEM\n   ************* IDF Context for following error/warning message:\n   ************* Note -- lines truncated at 300 characters, if necessary...\n   *************  14001 CoilSystem:Cooling:DX,\n   ************* indicated Name=Zone Office WholeBuilding - Md Office B end_a - Story Mid PSZ-AC 1spd DX AC Clg Coil 28kBtu/hr 9.7SEER CoilSystem\n   ************* Only last 1 lines before error line shown.....\n   *************  14002   Zone Office WholeBuilding - Md Office B end_a - Story Mid PSZ-AC 1spd DX AC Clg Coil 28kBtu/hr 9.7SEER CoilSystem, !- Name\n   ** Warning ** IP: IDF line~14002 Alpha Argument length exceeds maximum, will be truncated=  Zone Office WholeBuilding - Md Office B end_a - Story Mid PSZ-AC 1spd DX AC Clg Coil 28kBtu/hr 9.7SEER CoilSyste\n   **   ~~~   ** Will be processed as Alpha=ZONE OFFICE WHOLEBUILDING - MD OFFICE B END_A - STORY MID PSZ-AC 1SPD DX AC CLG COIL 28KBTU/HR 9.7SEER COILSYSTEM\n   ************* IDF Context for following error/warning message:\n   ************* Note -- lines truncated at 300 characters, if necessary...\n   *************  14001 CoilSystem:Cooling:DX,\n   ************* indicated Name=Zone Office WholeBuilding - Md Office B end_a - Story Mid PSZ-AC 1spd DX AC Clg Coil 28kBtu/hr 9.7SEER CoilSystem\n   ************* Only last 7 lines before error line shown.....\n   *************  14002   Zone Office WholeBuilding - Md Office B end_a - Story Mid PSZ-AC 1spd DX AC Clg Coil 28kBtu/hr 9.7SEER CoilSystem, !- Name\n   *************  14003   Always On Discrete,                     !- Availability Schedule Name\n   *************  14004   Node 194,                               !- DX Cooling Coil System Inlet Node Name\n   *************  14005   Node 193,                               !- DX Cooling Coil System Outlet Node Name\n   *************  14006   Node 193,                               !- DX Cooling Coil System Sensor Node Name\n   *************  14007   Coil:Cooling:DX:SingleSpeed,            !- Cooling Coil Object Type\n   *************  14008   Zone Office WholeBuilding - Md Office B end_a - Story Mid PSZ-AC 1spd DX AC Clg Coil 28kBtu/hr 9.7SEER; !- Cooling Coil Name\n   ** Warning ** IP: IDF line~14008 Alpha Argument length exceeds maximum, will be truncated=  Zone Office WholeBuilding - Md Office B end_a - Story Mid PSZ-AC 1spd DX AC Clg Coil 28kBtu/hr 9.7SEE\n   **   ~~~   ** Will be processed as Alpha=ZONE OFFICE WHOLEBUILDING - MD OFFICE B END_A - STORY MID PSZ-AC 1SPD DX AC CLG COIL 28KBTU/HR 9.7SEER\n   ************* IDF Context for following error/warning message:\n   ************* Note -- lines truncated at 300 characters, if necessary...\n   *************  14075 Coil:Cooling:DX:SingleSpeed,\n   ************* indicated Name=Zone Office WholeBuilding - Md Office B end_a - Story Mid PSZ-AC 1spd DX AC Clg Coil 28kBtu/hr 9.7SEER\n   ************* Only last 1 lines before error line shown.....\n   *************  14076   Zone Office WholeBuilding - Md Office B end_a - Story Mid PSZ-AC 1spd DX AC Clg Coil 28kBtu/hr 9.7SEER, !- Name\n   ** Warning ** IP: IDF line~14076 Alpha Argument length exceeds maximum, will be truncated=  Zone Office WholeBuilding - Md Office B end_a - Story Mid PSZ-AC 1spd DX AC Clg Coil 28kBtu/hr 9.7SEE\n   **   ~~~   ** Will be processed as Alpha=ZONE OFFICE WHOLEBUILDING - MD OFFICE B END_A - STORY MID PSZ-AC 1SPD DX AC CLG COIL 28KBTU/HR 9.7SEER\n   ************* IDF Context for following error/warning message:\n   ************* Note -- lines truncated at 300 characters, if necessary...\n   *************  14265 Branch,\n   ************* indicated Name=Zone Office WholeBuilding - Md Office B end_a - Story Top PSZ-AC Main Branch\n   ************* Only last 8 lines before error line shown.....\n   *************  14266   Zone Office WholeBuilding - Md Office B end_a - Story Top PSZ-AC Main Branch, !- Name\n   *************  14267   ,                                       !- Pressure Drop Curve Name\n   *************  14268   AirLoopHVAC:OutdoorAirSystem,           !- Component Object Type 1\n   *************  14269   Zone Office WholeBuilding - Md Office B end_a - Story Top PSZ-AC OA Sys, !- Component Name 1\n   *************  14270   Node 328,                               !- Component Inlet Node Name 1\n   *************  14271   Node 338,                               !- Component Outlet Node Name 1\n   *************  14272   CoilSystem:Cooling:DX,                  !- Component Object Type 2\n   *************  14273   Zone Office WholeBuilding - Md Office B end_a - Story Top PSZ-AC 1spd DX AC Clg Coil 34kBtu/hr 9.7SEER CoilSystem, !- Component Name 2\n   ** Warning ** IP: IDF line~14273 Alpha Argument length exceeds maximum, will be truncated=  Zone Office WholeBuilding - Md Office B end_a - Story Top PSZ-AC 1spd DX AC Clg Coil 34kBtu/hr 9.7SEER CoilSyste\n   **   ~~~   ** Will be processed as Alpha=ZONE OFFICE WHOLEBUILDING - MD OFFICE B END_A - STORY TOP PSZ-AC 1SPD DX AC CLG COIL 34KBTU/HR 9.7SEER COILSYSTEM\n   ************* IDF Context for following error/warning message:\n   ************* Note -- lines truncated at 300 characters, if necessary...\n   *************  14360 CoilSystem:Cooling:DX,\n   ************* indicated Name=Zone Office WholeBuilding - Md Office B end_a - Story Top PSZ-AC 1spd DX AC Clg Coil 34kBtu/hr 9.7SEER CoilSystem\n   ************* Only last 1 lines before error line shown.....\n   *************  14361   Zone Office WholeBuilding - Md Office B end_a - Story Top PSZ-AC 1spd DX AC Clg Coil 34kBtu/hr 9.7SEER CoilSystem, !- Name\n   ** Warning ** IP: IDF line~14361 Alpha Argument length exceeds maximum, will be truncated=  Zone Office WholeBuilding - Md Office B end_a - Story Top PSZ-AC 1spd DX AC Clg Coil 34kBtu/hr 9.7SEER CoilSyste\n   **   ~~~   ** Will be processed as Alpha=ZONE OFFICE WHOLEBUILDING - MD OFFICE B END_A - STORY TOP PSZ-AC 1SPD DX AC CLG COIL 34KBTU/HR 9.7SEER COILSYSTEM\n   ************* IDF Context for following error/warning message:\n   ************* Note -- lines truncated at 300 characters, if necessary...\n   *************  14360 CoilSystem:Cooling:DX,\n   ************* indicated Name=Zone Office WholeBuilding - Md Office B end_a - Story Top PSZ-AC 1spd DX AC Clg Coil 34kBtu/hr 9.7SEER CoilSystem\n   ************* Only last 7 lines before error line shown.....\n   *************  14361   Zone Office WholeBuilding - Md Office B end_a - Story Top PSZ-AC 1spd DX AC Clg Coil 34kBtu/hr 9.7SEER CoilSystem, !- Name\n   *************  14362   Always On Discrete,                     !- Availability Schedule Name\n   *************  14363   Node 338,                               !- DX Cooling Coil System Inlet Node Name\n   *************  14364   Node 337,                               !- DX Cooling Coil System Outlet Node Name\n   *************  14365   Node 337,                               !- DX Cooling Coil System Sensor Node Name\n   *************  14366   Coil:Cooling:DX:SingleSpeed,            !- Cooling Coil Object Type\n   *************  14367   Zone Office WholeBuilding - Md Office B end_a - Story Top PSZ-AC 1spd DX AC Clg Coil 34kBtu/hr 9.7SEER; !- Cooling Coil Name\n   ** Warning ** IP: IDF line~14367 Alpha Argument length exceeds maximum, will be truncated=  Zone Office WholeBuilding - Md Office B end_a - Story Top PSZ-AC 1spd DX AC Clg Coil 34kBtu/hr 9.7SEE\n   **   ~~~   ** Will be processed as Alpha=ZONE OFFICE WHOLEBUILDING - MD OFFICE B END_A - STORY TOP PSZ-AC 1SPD DX AC CLG COIL 34KBTU/HR 9.7SEER\n   ************* IDF Context for following error/warning message:\n   ************* Note -- lines truncated at 300 characters, if necessary...\n   *************  14434 Coil:Cooling:DX:SingleSpeed,\n   ************* indicated Name=Zone Office WholeBuilding - Md Office B end_a - Story Top PSZ-AC 1spd DX AC Clg Coil 34kBtu/hr 9.7SEER\n   ************* Only last 1 lines before error line shown.....\n   *************  14435   Zone Office WholeBuilding - Md Office B end_a - Story Top PSZ-AC 1spd DX AC Clg Coil 34kBtu/hr 9.7SEER, !- Name\n   ** Warning ** IP: IDF line~14435 Alpha Argument length exceeds maximum, will be truncated=  Zone Office WholeBuilding - Md Office B end_a - Story Top PSZ-AC 1spd DX AC Clg Coil 34kBtu/hr 9.7SEE\n   **   ~~~   ** Will be processed as Alpha=ZONE OFFICE WHOLEBUILDING - MD OFFICE B END_A - STORY TOP PSZ-AC 1SPD DX AC CLG COIL 34KBTU/HR 9.7SEER\n   ************* IDF Context for following error/warning message:\n   ************* Note -- lines truncated at 300 characters, if necessary...\n   *************  14624 Branch,\n   ************* indicated Name=Zone Office WholeBuilding - Md Office B end_b - Story Ground PSZ-AC Main Branch\n   ************* Only last 8 lines before error line shown.....\n   *************  14625   Zone Office WholeBuilding - Md Office B end_b - Story Ground PSZ-AC Main Branch, !- Name\n   *************  14626   ,                                       !- Pressure Drop Curve Name\n   *************  14627   AirLoopHVAC:OutdoorAirSystem,           !- Component Object Type 1\n   *************  14628   Zone Office WholeBuilding - Md Office B end_b - Story Ground PSZ-AC OA Sys, !- Component Name 1\n   *************  14629   Node 88,                                !- Component Inlet Node Name 1\n   *************  14630   Node 98,                                !- Component Outlet Node Name 1\n   *************  14631   CoilSystem:Cooling:DX,                  !- Component Object Type 2\n   *************  14632   Zone Office WholeBuilding - Md Office B end_b - Story Ground PSZ-AC 1spd DX AC Clg Coil 20kBtu/hr 9.7SEER CoilSystem, !- Component Name 2\n   ** Warning ** IP: IDF line~14632 Alpha Argument length exceeds maximum, will be truncated=  Zone Office WholeBuilding - Md Office B end_b - Story Ground PSZ-AC 1spd DX AC Clg Coil 20kBtu/hr 9.7SEER CoilSyste\n   **   ~~~   ** Will be processed as Alpha=ZONE OFFICE WHOLEBUILDING - MD OFFICE B END_B - STORY GROUND PSZ-AC 1SPD DX AC CLG COIL 20KBTU/HR 9.7SEER COILSYSTEM\n   ************* IDF Context for following error/warning message:\n   ************* Note -- lines truncated at 300 characters, if necessary...\n   *************  14719 CoilSystem:Cooling:DX,\n   ************* indicated Name=Zone Office WholeBuilding - Md Office B end_b - Story Ground PSZ-AC 1spd DX AC Clg Coil 20kBtu/hr 9.7SEER CoilSystem\n   ************* Only last 1 lines before error line shown.....\n   *************  14720   Zone Office WholeBuilding - Md Office B end_b - Story Ground PSZ-AC 1spd DX AC Clg Coil 20kBtu/hr 9.7SEER CoilSystem, !- Name\n   ** Warning ** IP: IDF line~14720 Alpha Argument length exceeds maximum, will be truncated=  Zone Office WholeBuilding - Md Office B end_b - Story Ground PSZ-AC 1spd DX AC Clg Coil 20kBtu/hr 9.7SEER CoilSyste\n   **   ~~~   ** Will be processed as Alpha=ZONE OFFICE WHOLEBUILDING - MD OFFICE B END_B - STORY GROUND PSZ-AC 1SPD DX AC CLG COIL 20KBTU/HR 9.7SEER COILSYSTEM\n   ************* IDF Context for following error/warning message:\n   ************* Note -- lines truncated at 300 characters, if necessary...\n   *************  14719 CoilSystem:Cooling:DX,\n   ************* indicated Name=Zone Office WholeBuilding - Md Office B end_b - Story Ground PSZ-AC 1spd DX AC Clg Coil 20kBtu/hr 9.7SEER CoilSystem\n   ************* Only last 7 lines before error line shown.....\n   *************  14720   Zone Office WholeBuilding - Md Office B end_b - Story Ground PSZ-AC 1spd DX AC Clg Coil 20kBtu/hr 9.7SEER CoilSystem, !- Name\n   *************  14721   Always On Discrete,                     !- Availability Schedule Name\n   *************  14722   Node 98,                                !- DX Cooling Coil System Inlet Node Name\n   *************  14723   Node 97,                                !- DX Cooling Coil System Outlet Node Name\n   *************  14724   Node 97,                                !- DX Cooling Coil System Sensor Node Name\n   *************  14725   Coil:Cooling:DX:SingleSpeed,            !- Cooling Coil Object Type\n   *************  14726   Zone Office WholeBuilding - Md Office B end_b - Story Ground PSZ-AC 1spd DX AC Clg Coil 20kBtu/hr 9.7SEER; !- Cooling Coil Name\n   ** Warning ** IP: IDF line~14726 Alpha Argument length exceeds maximum, will be truncated=  Zone Office WholeBuilding - Md Office B end_b - Story Ground PSZ-AC 1spd DX AC Clg Coil 20kBtu/hr 9.7SEE\n   **   ~~~   ** Will be processed as Alpha=ZONE OFFICE WHOLEBUILDING - MD OFFICE B END_B - STORY GROUND PSZ-AC 1SPD DX AC CLG COIL 20KBTU/HR 9.7SEER\n   ************* IDF Context for following error/warning message:\n   ************* Note -- lines truncated at 300 characters, if necessary...\n   *************  14793 Coil:Cooling:DX:SingleSpeed,\n   ************* indicated Name=Zone Office WholeBuilding - Md Office B end_b - Story Ground PSZ-AC 1spd DX AC Clg Coil 20kBtu/hr 9.7SEER\n   ************* Only last 1 lines before error line shown.....\n   *************  14794   Zone Office WholeBuilding - Md Office B end_b - Story Ground PSZ-AC 1spd DX AC Clg Coil 20kBtu/hr 9.7SEER, !- Name\n   ** Warning ** IP: IDF line~14794 Alpha Argument length exceeds maximum, will be truncated=  Zone Office WholeBuilding - Md Office B end_b - Story Ground PSZ-AC 1spd DX AC Clg Coil 20kBtu/hr 9.7SEE\n   **   ~~~   ** Will be processed as Alpha=ZONE OFFICE WHOLEBUILDING - MD OFFICE B END_B - STORY GROUND PSZ-AC 1SPD DX AC CLG COIL 20KBTU/HR 9.7SEER\n   ************* IDF Context for following error/warning message:\n   ************* Note -- lines truncated at 300 characters, if necessary...\n   *************  14983 Branch,\n   ************* indicated Name=Zone Office WholeBuilding - Md Office B end_b - Story Mid PSZ-AC Main Branch\n   ************* Only last 8 lines before error line shown.....\n   *************  14984   Zone Office WholeBuilding - Md Office B end_b - Story Mid PSZ-AC Main Branch, !- Name\n   *************  14985   ,                                       !- Pressure Drop Curve Name\n   *************  14986   AirLoopHVAC:OutdoorAirSystem,           !- Component Object Type 1\n   *************  14987   Zone Office WholeBuilding - Md Office B end_b - Story Mid PSZ-AC OA Sys, !- Component Name 1\n   *************  14988   Node 136,                               !- Component Inlet Node Name 1\n   *************  14989   Node 146,                               !- Component Outlet Node Name 1\n   *************  14990   CoilSystem:Cooling:DX,                  !- Component Object Type 2\n   *************  14991   Zone Office WholeBuilding - Md Office B end_b - Story Mid PSZ-AC 1spd DX AC Clg Coil 26kBtu/hr 9.7SEER CoilSystem, !- Component Name 2\n   ** Warning ** IP: IDF line~14991 Alpha Argument length exceeds maximum, will be truncated=  Zone Office WholeBuilding - Md Office B end_b - Story Mid PSZ-AC 1spd DX AC Clg Coil 26kBtu/hr 9.7SEER CoilSyste\n   **   ~~~   ** Will be processed as Alpha=ZONE OFFICE WHOLEBUILDING - MD OFFICE B END_B - STORY MID PSZ-AC 1SPD DX AC CLG COIL 26KBTU/HR 9.7SEER COILSYSTEM\n   ************* IDF Context for following error/warning message:\n   ************* Note -- lines truncated at 300 characters, if necessary...\n   *************  15078 CoilSystem:Cooling:DX,\n   ************* indicated Name=Zone Office WholeBuilding - Md Office B end_b - Story Mid PSZ-AC 1spd DX AC Clg Coil 26kBtu/hr 9.7SEER CoilSystem\n   ************* Only last 1 lines before error line shown.....\n   *************  15079   Zone Office WholeBuilding - Md Office B end_b - Story Mid PSZ-AC 1spd DX AC Clg Coil 26kBtu/hr 9.7SEER CoilSystem, !- Name\n   ** Warning ** IP: IDF line~15079 Alpha Argument length exceeds maximum, will be truncated=  Zone Office WholeBuilding - Md Office B end_b - Story Mid PSZ-AC 1spd DX AC Clg Coil 26kBtu/hr 9.7SEER CoilSyste\n   **   ~~~   ** Will be processed as Alpha=ZONE OFFICE WHOLEBUILDING - MD OFFICE B END_B - STORY MID PSZ-AC 1SPD DX AC CLG COIL 26KBTU/HR 9.7SEER COILSYSTEM\n   ************* IDF Context for following error/warning message:\n   ************* Note -- lines truncated at 300 characters, if necessary...\n   *************  15078 CoilSystem:Cooling:DX,\n   ************* indicated Name=Zone Office WholeBuilding - Md Office B end_b - Story Mid PSZ-AC 1spd DX AC Clg Coil 26kBtu/hr 9.7SEER CoilSystem\n   ************* Only last 7 lines before error line shown.....\n   *************  15079   Zone Office WholeBuilding - Md Office B end_b - Story Mid PSZ-AC 1spd DX AC Clg Coil 26kBtu/hr 9.7SEER CoilSystem, !- Name\n   *************  15080   Always On Discrete,                     !- Availability Schedule Name\n   *************  15081   Node 146,                               !- DX Cooling Coil System Inlet Node Name\n   *************  15082   Node 145,                               !- DX Cooling Coil System Outlet Node Name\n   *************  15083   Node 145,                               !- DX Cooling Coil System Sensor Node Name\n   *************  15084   Coil:Cooling:DX:SingleSpeed,            !- Cooling Coil Object Type\n   *************  15085   Zone Office WholeBuilding - Md Office B end_b - Story Mid PSZ-AC 1spd DX AC Clg Coil 26kBtu/hr 9.7SEER; !- Cooling Coil Name\n   ** Warning ** IP: IDF line~15085 Alpha Argument length exceeds maximum, will be truncated=  Zone Office WholeBuilding - Md Office B end_b - Story Mid PSZ-AC 1spd DX AC Clg Coil 26kBtu/hr 9.7SEE\n   **   ~~~   ** Will be processed as Alpha=ZONE OFFICE WHOLEBUILDING - MD OFFICE B END_B - STORY MID PSZ-AC 1SPD DX AC CLG COIL 26KBTU/HR 9.7SEER\n   ************* IDF Context for following error/warning message:\n   ************* Note -- lines truncated at 300 characters, if necessary...\n   *************  15152 Coil:Cooling:DX:SingleSpeed,\n   ************* indicated Name=Zone Office WholeBuilding - Md Office B end_b - Story Mid PSZ-AC 1spd DX AC Clg Coil 26kBtu/hr 9.7SEER\n   ************* Only last 1 lines before error line shown.....\n   *************  15153   Zone Office WholeBuilding - Md Office B end_b - Story Mid PSZ-AC 1spd DX AC Clg Coil 26kBtu/hr 9.7SEER, !- Name\n   ** Warning ** IP: IDF line~15153 Alpha Argument length exceeds maximum, will be truncated=  Zone Office WholeBuilding - Md Office B end_b - Story Mid PSZ-AC 1spd DX AC Clg Coil 26kBtu/hr 9.7SEE\n   **   ~~~   ** Will be processed as Alpha=ZONE OFFICE WHOLEBUILDING - MD OFFICE B END_B - STORY MID PSZ-AC 1SPD DX AC CLG COIL 26KBTU/HR 9.7SEER\n   ************* IDF Context for following error/warning message:\n   ************* Note -- lines truncated at 300 characters, if necessary...\n   *************  15342 Branch,\n   ************* indicated Name=Zone Office WholeBuilding - Md Office B end_b - Story Top PSZ-AC Main Branch\n   ************* Only last 8 lines before error line shown.....\n   *************  15343   Zone Office WholeBuilding - Md Office B end_b - Story Top PSZ-AC Main Branch, !- Name\n   *************  15344   ,                                       !- Pressure Drop Curve Name\n   *************  15345   AirLoopHVAC:OutdoorAirSystem,           !- Component Object Type 1\n   *************  15346   Zone Office WholeBuilding - Md Office B end_b - Story Top PSZ-AC OA Sys, !- Component Name 1\n   *************  15347   Node 304,                               !- Component Inlet Node Name 1\n   *************  15348   Node 314,                               !- Component Outlet Node Name 1\n   *************  15349   CoilSystem:Cooling:DX,                  !- Component Object Type 2\n   *************  15350   Zone Office WholeBuilding - Md Office B end_b - Story Top PSZ-AC 1spd DX AC Clg Coil 29kBtu/hr 9.7SEER CoilSystem, !- Component Name 2\n   ** Warning ** IP: IDF line~15350 Alpha Argument length exceeds maximum, will be truncated=  Zone Office WholeBuilding - Md Office B end_b - Story Top PSZ-AC 1spd DX AC Clg Coil 29kBtu/hr 9.7SEER CoilSyste\n   **   ~~~   ** Will be processed as Alpha=ZONE OFFICE WHOLEBUILDING - MD OFFICE B END_B - STORY TOP PSZ-AC 1SPD DX AC CLG COIL 29KBTU/HR 9.7SEER COILSYSTEM\n   ************* IDF Context for following error/warning message:\n   ************* Note -- lines truncated at 300 characters, if necessary...\n   *************  15437 CoilSystem:Cooling:DX,\n   ************* indicated Name=Zone Office WholeBuilding - Md Office B end_b - Story Top PSZ-AC 1spd DX AC Clg Coil 29kBtu/hr 9.7SEER CoilSystem\n   ************* Only last 1 lines before error line shown.....\n   *************  15438   Zone Office WholeBuilding - Md Office B end_b - Story Top PSZ-AC 1spd DX AC Clg Coil 29kBtu/hr 9.7SEER CoilSystem, !- Name\n   ** Warning ** IP: IDF line~15438 Alpha Argument length exceeds maximum, will be truncated=  Zone Office WholeBuilding - Md Office B end_b - Story Top PSZ-AC 1spd DX AC Clg Coil 29kBtu/hr 9.7SEER CoilSyste\n   **   ~~~   ** Will be processed as Alpha=ZONE OFFICE WHOLEBUILDING - MD OFFICE B END_B - STORY TOP PSZ-AC 1SPD DX AC CLG COIL 29KBTU/HR 9.7SEER COILSYSTEM\n   ************* IDF Context for following error/warning message:\n   ************* Note -- lines truncated at 300 characters, if necessary...\n   *************  15437 CoilSystem:Cooling:DX,\n   ************* indicated Name=Zone Office WholeBuilding - Md Office B end_b - Story Top PSZ-AC 1spd DX AC Clg Coil 29kBtu/hr 9.7SEER CoilSystem\n   ************* Only last 7 lines before error line shown.....\n   *************  15438   Zone Office WholeBuilding - Md Office B end_b - Story Top PSZ-AC 1spd DX AC Clg Coil 29kBtu/hr 9.7SEER CoilSystem, !- Name\n   *************  15439   Always On Discrete,                     !- Availability Schedule Name\n   *************  15440   Node 314,                               !- DX Cooling Coil System Inlet Node Name\n   *************  15441   Node 313,                               !- DX Cooling Coil System Outlet Node Name\n   *************  15442   Node 313,                               !- DX Cooling Coil System Sensor Node Name\n   *************  15443   Coil:Cooling:DX:SingleSpeed,            !- Cooling Coil Object Type\n   *************  15444   Zone Office WholeBuilding - Md Office B end_b - Story Top PSZ-AC 1spd DX AC Clg Coil 29kBtu/hr 9.7SEER; !- Cooling Coil Name\n   ** Warning ** IP: IDF line~15444 Alpha Argument length exceeds maximum, will be truncated=  Zone Office WholeBuilding - Md Office B end_b - Story Top PSZ-AC 1spd DX AC Clg Coil 29kBtu/hr 9.7SEE\n   **   ~~~   ** Will be processed as Alpha=ZONE OFFICE WHOLEBUILDING - MD OFFICE B END_B - STORY TOP PSZ-AC 1SPD DX AC CLG COIL 29KBTU/HR 9.7SEER\n   ************* IDF Context for following error/warning message:\n   ************* Note -- lines truncated at 300 characters, if necessary...\n   *************  15511 Coil:Cooling:DX:SingleSpeed,\n   ************* indicated Name=Zone Office WholeBuilding - Md Office B end_b - Story Top PSZ-AC 1spd DX AC Clg Coil 29kBtu/hr 9.7SEER\n   ************* Only last 1 lines before error line shown.....\n   *************  15512   Zone Office WholeBuilding - Md Office B end_b - Story Top PSZ-AC 1spd DX AC Clg Coil 29kBtu/hr 9.7SEER, !- Name\n   ** Warning ** IP: IDF line~15512 Alpha Argument length exceeds maximum, will be truncated=  Zone Office WholeBuilding - Md Office B end_b - Story Top PSZ-AC 1spd DX AC Clg Coil 29kBtu/hr 9.7SEE\n   **   ~~~   ** Will be processed as Alpha=ZONE OFFICE WHOLEBUILDING - MD OFFICE B END_B - STORY TOP PSZ-AC 1SPD DX AC CLG COIL 29KBTU/HR 9.7SEER\n   ************* IDF Context for following error/warning message:\n   ************* Note -- lines truncated at 300 characters, if necessary...\n   *************  15701 Branch,\n   ************* indicated Name=Zone Office WholeBuilding - Md Office C  - Story Ground PSZ-AC Main Branch\n   ************* Only last 8 lines before error line shown.....\n   *************  15702   Zone Office WholeBuilding - Md Office C  - Story Ground PSZ-AC Main Branch, !- Name\n   *************  15703   ,                                       !- Pressure Drop Curve Name\n   *************  15704   AirLoopHVAC:OutdoorAirSystem,           !- Component Object Type 1\n   *************  15705   Zone Office WholeBuilding - Md Office C  - Story Ground PSZ-AC OA Sys, !- Component Name 1\n   *************  15706   Node 124,                               !- Component Inlet Node Name 1\n   *************  15707   Node 134,                               !- Component Outlet Node Name 1\n   *************  15708   CoilSystem:Cooling:DX,                  !- Component Object Type 2\n   *************  15709   Zone Office WholeBuilding - Md Office C  - Story Ground PSZ-AC 1spd DX AC Clg Coil 20kBtu/hr 9.7SEER CoilSystem, !- Component Name 2\n   ** Warning ** IP: IDF line~15709 Alpha Argument length exceeds maximum, will be truncated=  Zone Office WholeBuilding - Md Office C  - Story Ground PSZ-AC 1spd DX AC Clg Coil 20kBtu/hr 9.7SEER CoilSyste\n   **   ~~~   ** Will be processed as Alpha=ZONE OFFICE WHOLEBUILDING - MD OFFICE C  - STORY GROUND PSZ-AC 1SPD DX AC CLG COIL 20KBTU/HR 9.7SEER COILSYSTEM\n   ************* IDF Context for following error/warning message:\n   ************* Note -- lines truncated at 300 characters, if necessary...\n   *************  15796 CoilSystem:Cooling:DX,\n   ************* indicated Name=Zone Office WholeBuilding - Md Office C  - Story Ground PSZ-AC 1spd DX AC Clg Coil 20kBtu/hr 9.7SEER CoilSystem\n   ************* Only last 1 lines before error line shown.....\n   *************  15797   Zone Office WholeBuilding - Md Office C  - Story Ground PSZ-AC 1spd DX AC Clg Coil 20kBtu/hr 9.7SEER CoilSystem, !- Name\n   ** Warning ** IP: IDF line~15797 Alpha Argument length exceeds maximum, will be truncated=  Zone Office WholeBuilding - Md Office C  - Story Ground PSZ-AC 1spd DX AC Clg Coil 20kBtu/hr 9.7SEER CoilSyste\n   **   ~~~   ** Will be processed as Alpha=ZONE OFFICE WHOLEBUILDING - MD OFFICE C  - STORY GROUND PSZ-AC 1SPD DX AC CLG COIL 20KBTU/HR 9.7SEER
[...]
            "units": "kBtu",
            "value": 215467.2659608264
          },
          {
            "name": "end_use_exterior_lighting",
            "units": "kBtu",
            "value": 98383.41708852233
          },
          {
            "name": "end_use_interior_equipment",
            "units": "kBtu",
            "value": 370369.01793363184
          },
          {
            "name": "end_use_exterior_equipment",
            "units": "kBtu",
            "value": 0
          },
          {
            "name": "end_use_fans",
            "units": "kBtu",
            "value": 301756.5365941508
          },
          {
            "name": "end_use_pumps",
            "units": "kBtu",
            "value": 0
          },
          {
            "name": "end_use_heat_rejection",
            "units": "kBtu",
            "value": 0
          },
          {
            "name": "end_use_humidification",
            "units": "kBtu",
            "value": 0
          },
          {
            "name": "end_use_heat_recovery",
            "units": "kBtu",
            "value": 0
          },
          {
            "name": "end_use_water_systems",
            "units": "kBtu",
            "value": 0
          },
          {
            "name": "end_use_refrigeration",
            "units": "kBtu",
            "value": 0
          },
          {
            "name": "end_use_generators",
            "units": "kBtu",
            "value": 0
          },
          {
            "name": "fuel_electricity",
            "units": "kBtu",
            "value": 1143967.8733621584
          },
          {
            "name": "fuel_natural_gas",
            "units": "kBtu",
            "value": 250612.32478204425
          },
          {
            "name": "fuel_additional_fuel",
            "units": "kBtu",
            "value": 0
          },
          {
            "name": "fuel_district_cooling",
            "units": "kBtu",
            "value": 0
          },
          {
            "name": "fuel_district_heating",
            "units": "kBtu",
            "value": 0
          },
          {
            "name": "end_use_electricity_heating",
            "units": "kWh",
            "value": 800
          },
          {
            "name": "end_use_electricity_cooling",
            "units": "kWh",
            "value": 45500
          },
          {
            "name": "end_use_electricity_interior_lighting",
            "units": "kWh",
            "value": 63147.222222222226
          },
          {
            "name": "end_use_electricity_exterior_lighting",
            "units": "kWh",
            "value": 28833.333333333332
          },
          {
            "name": "end_use_electricity_interior_equipment",
            "units": "kWh",
            "value": 108544.44444444445
          },
          {
            "name": "end_use_electricity_exterior_equipment",
            "units": "kWh",
            "value": 0
          },
          {
            "name": "end_use_electricity_fans",
            "units": "kWh",
            "value": 88436.11111111111
          },
          {
            "name": "end_use_electricity_pumps",
            "units": "kWh",
            "value": 0
          },
          {
            "name": "end_use_electricity_heat_rejection",
            "units": "kWh",
            "value": 0
          },
          {
            "name": "end_use_electricity_humidification",
            "units": "kWh",
            "value": 0
          },
          {
            "name": "end_use_electricity_heat_recovery",
            "units": "kWh",
            "value": 0
          },
          {
            "name": "end_use_electricity_water_systems",
            "units": "kWh",
            "value": 0
          },
          {
            "name": "end_use_electricity_refrigeration",
            "units": "kWh",
            "value": 0
          },
          {
            "name": "end_use_electricity_generators",
            "units": "kWh",
            "value": 0
          },
          {
            "name": "end_use_natural_gas_heating",
            "units": "therms",
            "value": 2506.6068000000005
          },
          {
            "name": "end_use_natural_gas_cooling",
            "units": "therms",
            "value": 0
          },
          {
            "name": "end_use_natural_gas_interior_lighting",
            "units": "therms",
            "value": 0
          },
          {
            "name": "end_use_natural_gas_exterior_lighting",
            "units": "therms",
            "value": 0
          },
          {
            "name": "end_use_natural_gas_interior_equipment",
            "units": "therms",
            "value": 0
          },
          {
            "name": "end_use_natural_gas_exterior_equipment",
            "units": "therms",
            "value": 0
          },
          {
            "name": "end_use_natural_gas_fans",
            "units": "therms",
            "value": 0
          },
          {
            "name": "end_use_natural_gas_pumps",
            "units": "therms",
            "value": 0
          },
          {
            "name": "end_use_natural_gas_heat_rejection",
            "units": "therms",
            "value": 0
          },
          {
            "name": "end_use_natural_gas_humidification",
            "units": "therms",
            "value": 0
          },
          {
            "name": "end_use_natural_gas_heat_recovery",
            "units": "therms",
            "value": 0
          },
          {
            "name": "end_use_natural_gas_water_systems",
            "units": "therms",
            "value": 0
          },
          {
            "name": "end_use_natural_gas_refrigeration",
            "units": "therms",
            "value": 0
          },
          {
            "name": "end_use_natural_gas_generators",
            "units": "therms",
            "value": 0
          },
          {
            "name": "electricity_heating_ip",
            "units": "kWh",
            "value": 800.6532501999999
          },
          {
            "name": "electricity_cooling_ip",
            "units": "kWh",
            "value": 45500.36666666667
          },
          {
            "name": "electricity_interior_lighting_ip",
            "units": "kWh",
            "value": 63146
          },
          {
            "name": "electricity_exterior_lighting_ip",
            "units": "kWh",
            "value": 28834.166666666668
          },
          {
            "name": "electricity_interior_equipment_ip",
            "units": "kWh",
            "value": 108545.61111111111
          },
          {
            "name": "electricity_exterior_equipment_ip",
            "units": "kWh",
            "value": 0
          },
          {
            "name": "electricity_fans_ip",
            "units": "kWh",
            "value": 88436.80555555555
          },
          {
            "name": "electricity_pumps_ip",
            "units": "kWh",
            "value": 0
          },
          {
            "name": "electricity_heat_rejection_ip",
            "units": "kWh",
            "value": 0
          },
          {
            "name": "electricity_humidification_ip",
            "units": "kWh",
            "value": 0
          },
          {
            "name": "electricity_heat_recovery_ip",
            "units": "kWh",
            "value": 0
          },
          {
            "name": "electricity_water_systems_ip",
            "units": "kWh",
            "value": 0
          },
          {
            "name": "electricity_refrigeration_ip",
            "units": "kWh",
            "value": 0
          },
          {
            "name": "electricity_generators_ip",
            "units": "kWh",
            "value": 0
          },
          {
            "name": "electricity_ip",
            "units": "kWh",
            "value": 335263.6032502
          },
          {
            "name": "natural_gas_heating_ip",
            "units": "MBtu",
            "value": 250.6083249937965
          },
          {
            "name": "natural_gas_cooling_ip",
            "units": "MBtu",
            "value": 0
          },
          {
            "name": "natural_gas_interior_lighting_ip",
            "units": "MBtu",
            "value": 0
          },
          {
            "name": "natural_gas_exterior_lighting_ip",
            "units": "MBtu",
            "value": 0
          },
          {
            "name": "natural_gas_interior_equipment_ip",
            "units": "MBtu",
            "value": 0
          },
          {
            "name": "natural_gas_exterior_equipment_ip",
            "units": "MBtu",
            "value": 0
          },
          {
            "name": "natural_gas_fans_ip",
            "units": "MBtu",
            "value": 0
          },
          {
            "name": "natural_gas_pumps_ip",
            "units": "MBtu",
            "value": 0
          },
          {
            "name": "natural_gas_heat_rejection_ip",
            "units": "MBtu",
            "value": 0
          },
          {
            "name": "natural_gas_humidification_ip",
            "units": "MBtu",
            "value": 0
          },
          {
            "name": "natural_gas_heat_recovery_ip",
            "units": "MBtu",
            "value": 0
          },
          {
            "name": "natural_gas_water_systems_ip",
            "units": "MBtu",
            "value": 0
          },
          {
            "name": "natural_gas_refrigeration_ip",
            "units": "MBtu",
            "value": 0
          },
          {
            "name": "natural_gas_generators_ip",
            "units": "MBtu",
            "value": 0
          },
          {
            "name": "natural_gas_ip",
            "units": "MBtu",
            "value": 250.6083249937965
          },
          {
            "name": "additional_fuel_heating_ip",
            "units": "MBtu",
            "value": 0
          },
          {
            "name": "additional_fuel_cooling_ip",
            "units": "MBtu",
            "value": 0
          },
          {
            "name": "additional_fuel_interior_lighting_ip",
            "units": "MBtu",
            "value": 0
          },
          {
            "name": "additional_fuel_exterior_lighting_ip",
            "units": "MBtu",
            "value": 0
          },
          {
            "name": "additional_fuel_interior_equipment_ip",
            "units": "MBtu",
            "value": 0
          },
          {
            "name": "additional_fuel_exterior_equipment_ip",
            "units": "MBtu",
            "value": 0
          },
          {
            "name": "additional_fuel_fans_ip",
            "units": "MBtu",
            "value": 0
          },
          {
            "name": "additional_fuel_pumps_ip",
            "units": "MBtu",
            "value": 0
          },
          {
            "name": "additional_fuel_heat_rejection_ip",
            "units": "MBtu",
            "value": 0
          },
          {
            "name": "additional_fuel_humidification_ip",
            "units": "MBtu",
            "value": 0
          },
          {
            "name": "additional_fuel_heat_recovery_ip",
            "units": "MBtu",
            "value": 0
          },
          {
            "name": "additional_fuel_water_systems_ip",
            "units": "MBtu",
            "value": 0
          },
          {
            "name": "additional_fuel_refrigeration_ip",
            "units": "MBtu",
            "value": 0
          },
          {
            "name": "additional_fuel_generators_ip",
            "units": "MBtu",
            "value": 0
          },
          {
            "name": "additional_fuel_ip",
            "units": "MBtu",
            "value": 0
          },
          {
            "name": "district_cooling_heating_ip",
            "units": "MBtu",
            "value": 0
          },
          {
            "name": "district_cooling_cooling_ip",
            "units": "MBtu",
            "value": 0
          },
          {
            "name": "district_cooling_interior_lighting_ip",
            "units": "MBtu",
            "value": 0
          },
          {
            "name": "district_cooling_exterior_lighting_ip",
            "units": "MBtu",
            "value": 0
          },
          {
            "name": "district_cooling_interior_equipment_ip",
            "units": "MBtu",
            "value": 0
          },
          {
            "name": "district_cooling_exterior_equipment_ip",
            "units": "MBtu",
            "value": 0
          },
          {
            "name": "district_cooling_fans_ip",
            "units": "MBtu",
            "value": 0
          },
          {
            "name": "district_cooling_pumps_ip",
            "units": "MBtu",
            "value": 0
          },
          {
            "name": "district_cooling_heat_rejection_ip",
            "units": "MBtu",
            "value": 0
          },
          {
            "name": "district_cooling_humidification_ip",
            "units": "MBtu",
            "value": 0
          },
          {
            "name": "district_cooling_heat_recovery_ip",
            "units": "MBtu",
            "value": 0
          },
          {
            "name": "district_cooling_water_systems_ip",
            "units": "MBtu",
            "value": 0
          },
          {
            "name": "district_cooling_refrigeration_ip",
            "units": "MBtu",
            "value": 0
          },
          {
            "name": "district_cooling_generators_ip",
            "units": "MBtu",
            "value": 0
          },
          {
            "name": "district_cooling_ip",
            "units": "MBtu",
            "value": 0
          },
          {
            "name": "district_heating_heating_ip",
            "units": "MBtu",
            "value": 0
          },
          {
            "name": "district_heating_cooling_ip",
            "units": "MBtu",
            "value": 0
          },
          {
            "name": "district_heating_interior_lighting_ip",
            "units": "MBtu",
            "value": 0
          },
          {
            "name": "district_heating_exterior_lighting_ip",
            "units": "MBtu",
            "value": 0
          },
          {
            "name": "district_heating_interior_equipment_ip",
            "units": "MBtu",
            "value": 0
          },
          {
            "name": "district_heating_exterior_equipment_ip",
            "units": "MBtu",
            "value": 0
          },
          {
            "name": "district_heating_fans_ip",
            "units": "MBtu",
            "value": 0
          },
          {
            "name": "district_heating_pumps_ip",
            "units": "MBtu",
            "value": 0
          },
          {
            "name": "district_heating_heat_rejection_ip",
            "units": "MBtu",
            "value": 0
          },
          {
            "name": "district_heating_humidification_ip",
            "units": "MBtu",
            "value": 0
          },
          {
            "name": "district_heating_heat_recovery_ip",
            "units": "MBtu",
            "value": 0
          },
          {
            "name": "district_heating_water_systems_ip",
            "units": "MBtu",
            "value": 0
          },
          {
            "name": "district_heating_refrigeration_ip",
            "units": "MBtu",
            "value": 0
          },
          {
            "name": "district_heating_generators_ip",
            "units": "MBtu",
            "value": 0
          },
          {
            "name": "district_heating_ip",
            "units": "MBtu",
            "value": 0
          },
          {
            "name": "water_heating_ip",
            "units": "MBtu",
            "value": 0
          },
          {
            "name": "water_cooling_ip",
            "units": "MBtu",
            "value": 0
          },
          {
            "name": "water_interior_lighting_ip",
            "units": "MBtu",
            "value": 0
          },
          {
            "name": "water_exterior_lighting_ip",
            "units": "MBtu",
            "value": 0
          },
          {
            "name": "water_interior_equipment_ip",
            "units": "MBtu",
            "value": 0
          },
          {
            "name": "water_exterior_equipment_ip",
            "units": "MBtu",
            "value": 0
          },
          {
            "name": "water_fans_ip",
            "units": "MBtu",
            "value": 0
          },
          {
            "name": "water_pumps_ip",
            "units": "MBtu",
            "value": 0
          },
          {
            "name": "water_heat_rejection_ip",
            "units": "MBtu",
            "value": 0
          },
          {
            "name": "water_humidification_ip",
            "units": "MBtu",
            "value": 0
          },
          {
            "name": "water_heat_recovery_ip",
            "units": "MBtu",
            "value": 0
          },
          {
            "name": "water_water_systems_ip",
            "units": "MBtu",
            "value": 0
          },
          {
            "name": "water_refrigeration_ip",
            "units": "MBtu",
            "value": 0
          },
          {
            "name": "water_generators_ip",
            "units": "MBtu",
            "value": 0
          },
          {
            "name": "water_ip",
            "units": "MBtu",
            "value": 0
          },
          {
            "name": "typical_iead_roof_r_15_87",
            "units": "ft^2",
            "value": 6666.666666666667
          },
          {
            "name": "typical_insulated_exterior_mass_wall_r_8_13",
            "units": "ft^2",
            "value": 8709.999999999995
          },
          {
            "name": "u_0_57_shgc_0_49_dbl_blue_6_mm_6_mm_air",
            "units": "ft^2",
            "value": 4290.000000000001
          },
          {
            "name": "gross_window_wall_ratio",
            "units": "%",
            "value": 33
          },
          {
            "name": "gross_window_wall_ratio_conditioned",
            "units": "%",
            "value": 33
          },
          {
            "name": "skylight_roof_ratio",
            "units": "%",
            "value": 0
          },
          {
            "name": "space_type_office_whole_building_md_office_90_1_2004",
            "units": "ft^2",
            "value": 19999.999999999993
          },
          {
            "name": "exterior_lighting_total_power",
            "units": "W",
            "value": 7006.67
          },
          {
            "name": "exterior_lighting_total_consumption",
            "units": "kWh",
            "value": 408708.3333333333
          },
          {
            "name": "office_whole_building_md_office_90_1_2004_swh",
            "units": "gal/min",
            "value": 0.3169985828333336
          },
          {
            "name": "inflation_approach",
            "value": "Constant Dollar"
          },
          {
            "name": "analysis_length",
            "units": "yrs",
            "value": 25
          },
          {
            "name": "annual_peak_electric_demand",
            "units": "kW",
            "value": 110.9889
          },
          {
            "name": "first_year_capital_cost",
            "units": "$",
            "value": 0
          },
          {
            "name": "annual_utility_cost",
            "units": "$",
            "value": 20018.8
          },
          {
            "name": "total_lifecycle_cost",
            "units": "$",
            "value": 349591.12
          }
        ],
        "step_warnings": []
      }
    }
  ],
  "updated_at": "20180213T191431Z",
  "weather_file": "USA_AK_Fairbanks.Intl.AP.702610_TMY3.epw"
}