Program Version,EnergyPlus, Version 9.1.0-08d2e308bb, YMD=2019.04.09 23:04
! <Version>, Version ID
 Version, 9.1
! <Timesteps per Hour>, #TimeSteps, Minutes per TimeStep {minutes}
 Timesteps per Hour,  6, 10
! <System Convergence Limits>, Minimum System TimeStep {minutes}, Max HVAC Iterations, Minimum Plant Iterations, Maximum Plant Iterations
 System Convergence Limits, 2, 25, 2, 8
! <Simulation Control>, Do Zone Sizing, Do System Sizing, Do Plant Sizing, Do Design Days, Do Weather Simulation, Do HVAC Sizing Simulation
 Simulation Control, Yes, Yes, Yes, Yes, No, No
! <Output Reporting Tolerances>, Tolerance for Time Heating Setpoint Not Met, Tolerance for Zone Cooling Setpoint Not Met Time
 Output Reporting Tolerances, 0.556, 0.556, 
! <Site:GroundTemperature:BuildingSurface>,Jan{C},Feb{C},Mar{C},Apr{C},May{C},Jun{C},Jul{C},Aug{C},Sep{C},Oct{C},Nov{C},Dec{C}
 Site:GroundTemperature:BuildingSurface,  20.49,  20.43,  20.44,  20.50,  20.59,  22.83,  23.24,  23.33,  23.36,  21.14,  20.78,  20.61
! <Site:GroundTemperature:FCfactorMethod>,Jan{C},Feb{C},Mar{C},Apr{C},May{C},Jun{C},Jul{C},Aug{C},Sep{C},Oct{C},Nov{C},Dec{C}
 Site:GroundTemperature:FCfactorMethod,  -1.89,  -3.06,  -0.99,   2.23,  10.68,  17.20,  21.60,  22.94,  20.66,  15.60,   8.83,   2.56
! <Site:GroundTemperature:Shallow>,Jan{C},Feb{C},Mar{C},Apr{C},May{C},Jun{C},Jul{C},Aug{C},Sep{C},Oct{C},Nov{C},Dec{C}
 Site:GroundTemperature:Shallow,  13.00,  13.00,  13.00,  13.00,  13.00,  13.00,  13.00,  13.00,  13.00,  13.00,  13.00,  13.00
! <Site:GroundTemperature:Deep>,Jan{C},Feb{C},Mar{C},Apr{C},May{C},Jun{C},Jul{C},Aug{C},Sep{C},Oct{C},Nov{C},Dec{C}
 Site:GroundTemperature:Deep,  16.00,  16.00,  16.00,  16.00,  16.00,  16.00,  16.00,  16.00,  16.00,  16.00,  16.00,  16.00
! <Site:GroundReflectance>,Jan{dimensionless},Feb{dimensionless},Mar{dimensionless},Apr{dimensionless},May{dimensionless},Jun{dimensionless},Jul{dimensionless},Aug{dimensionless},Sep{dimensionless},Oct{dimensionless},Nov{dimensionless},Dec{dimensionless}
 Site:GroundReflectance,  0.20,  0.20,  0.20,  0.20,  0.20,  0.20,  0.20,  0.20,  0.20,  0.20,  0.20,  0.20
! <Site:GroundReflectance:SnowModifier>, Normal, Daylighting {dimensionless}
 Site:GroundReflectance:SnowModifier,   1.000,   1.000
! <Site:GroundReflectance:Snow>,Jan{dimensionless},Feb{dimensionless},Mar{dimensionless},Apr{dimensionless},May{dimensionless},Jun{dimensionless},Jul{dimensionless},Aug{dimensionless},Sep{dimensionless},Oct{dimensionless},Nov{dimensionless},Dec{dimensionless}
 Site:GroundReflectance:Snow,  0.20,  0.20,  0.20,  0.20,  0.20,  0.20,  0.20,  0.20,  0.20,  0.20,  0.20,  0.20
! <Site:GroundReflectance:Snow:Daylighting>,Jan{dimensionless},Feb{dimensionless},Mar{dimensionless},Apr{dimensionless},May{dimensionless},Jun{dimensionless},Jul{dimensionless},Aug{dimensionless},Sep{dimensionless},Oct{dimensionless},Nov{dimensionless},Dec{dimensionless}
 Site:GroundReflectance:Snow:Daylighting,  0.20,  0.20,  0.20,  0.20,  0.20,  0.20,  0.20,  0.20,  0.20,  0.20,  0.20,  0.20
! <Environment:Weather Station>,Wind Sensor Height Above Ground {m},Wind Speed Profile Exponent {},Wind Speed Profile Boundary Layer Thickness {m},Air Temperature Sensor Height Above Ground {m},Wind Speed Modifier Coefficient-Internal,Temperature Modifier Coefficient-Internal
Environment:Weather Station,10.000,0.140,270.000,1.500,1.586,9.750E-003
! <Site:Location>, Location Name, Latitude {N+/S- Deg}, Longitude {E+/W- Deg},  Time Zone Number {GMT+/-}, Elevation {m},  Standard Pressure at Elevation {Pa}, Standard RhoAir at Elevation
Site:Location,Chicago Ohare Intl Ap IL USA TMY3 WMO#=725300,41.98,-87.92,-6.00,201.00,98934,1.1759
! <Site Water Mains Temperature Information>,Calculation Method{},Water Mains Temperature Schedule Name{},Annual Average Outdoor Air Temperature{C},Maximum Difference In Monthly Average Outdoor Air Temperatures{deltaC},Fixed Default Water Mains Temperature{C}
Site Water Mains Temperature Information,Correlation,NA,9.93,28.70,NA
! <Building Information>, Building Name,North Axis {deg},Terrain,  Loads Convergence Tolerance Value,Temperature Convergence Tolerance Value,  Solar Distribution,Maximum Number of Warmup Days,Minimum Number of Warmup Days
 Building Information,Medium Office Retail Mix ASHRAE 169-2006-5A,0.000,City,4.00000E-002,0.20000,FullInteriorAndExterior,25,6
! <Inside Convection Algorithm>, Algorithm {Simple | TARP | CeilingDiffuser | AdaptiveConvectionAlgorithm}
Inside Convection Algorithm,TARP
! <Outside Convection Algorithm>, Algorithm {SimpleCombined | TARP | MoWitt | DOE-2 | AdaptiveConvectionAlgorithm}
Outside Convection Algorithm,TARP
! <Sky Radiance Distribution>, Value {Anisotropic}
Sky Radiance Distribution,Anisotropic
! <Zone Air Solution Algorithm>, Value {ThirdOrderBackwardDifference | AnalyticalSolution | EulerMethod}
 Zone Air Solution Algorithm, ThirdOrderBackwardDifference
! <Zone Air Carbon Dioxide Balance Simulation>, Simulation {Yes/No}, Carbon Dioxide Concentration
 Zone Air Carbon Dioxide Balance Simulation, No,N/A
! <Zone Air Generic Contaminant Balance Simulation>, Simulation {Yes/No}, Generic Contaminant Concentration
 Zone Air Generic Contaminant Balance Simulation, No,N/A
! <Zone Air Mass Flow Balance Simulation>, Enforce Mass Balance, Adjust Zone Mixing, Adjust Zone Infiltration {AddInfiltration | AdjustInfiltration | None}, Infiltration Zones {MixingSourceZonesOnly | AllZones}
 Zone Air Mass Flow Balance Simulation, No,N/A,N/A,N/A
! <HVACSystemRootFindingAlgorithm>, Value {RegulaFalsi | Bisection | BisectionThenRegulaFalsi | RegulaFalsiThenBisection}
 HVACSystemRootFindingAlgorithm, RegulaFalsi
! <Environment:Site Atmospheric Variation>,Wind Speed Profile Exponent {},Wind Speed Profile Boundary Layer Thickness {m},Air Temperature Gradient Coefficient {K/m}
Environment:Site Atmospheric Variation,0.330,460.000,6.500000E-003
! <Surface Geometry>,Starting Corner,Vertex Input Direction,Coordinate System,Daylight Reference Point Coordinate System,Rectangular (Simple) Surface Coordinate System
 Surface Geometry,UpperLeftCorner,Counterclockwise,RelativeCoordinateSystem,RelativeCoordinateSystem,RelativeToZoneOrigin
! <Surface Heat Transfer Algorithm>, Value {CTF - ConductionTransferFunction | EMPD - MoisturePenetrationDepthConductionTransferFunction | CondFD - ConductionFiniteDifference | HAMT - CombinedHeatAndMoistureFiniteElement} - Description,Inside Surface Max Temperature Limit{C}, Surface Convection Coefficient Lower Limit {W/m2-K}, Surface Convection Coefficient Upper Limit {W/m2-K}
Surface Heat Transfer Algorithm, CTF - ConductionTransferFunction,200,0.10,1000.0
! <Shading Summary>, Number of Fixed Detached Shades, Number of Building Detached Shades, Number of Attached Shades
 Shading Summary,0,0,0
! <Zone Summary>, Number of Zones, Number of Zone Surfaces, Number of SubSurfaces
 Zone Summary,24,209,16
! <Zone Information>,Zone Name,North Axis {deg},Origin X-Coordinate {m},Origin Y-Coordinate {m},Origin Z-Coordinate {m},Centroid X-Coordinate {m},Centroid Y-Coordinate {m},Centroid Z-Coordinate {m},Type,Zone Multiplier,Zone List Multiplier,Minimum X {m},Maximum X {m},Minimum Y {m},Maximum Y {m},Minimum Z {m},Maximum Z {m},Ceiling Height {m},Volume {m3},Zone Inside Convection Algorithm {Simple-Detailed-CeilingDiffuser-TrombeWall},Zone Outside Convection Algorithm {Simple-Detailed-Tarp-MoWitt-DOE-2-BLAST}, Floor Area {m2},Exterior Gross Wall Area {m2},Exterior Net Wall Area {m2},Exterior Window Area {m2}, Number of Surfaces, Number of SubSurfaces, Number of Shading SubSurfaces,  Part of Total Building Area
 Zone Information, TZ_CORE_BOTTOM,0.0,0.00,0.00,4.57,24.96,16.64,5.94,1,1,1,4.57,45.34,4.57,28.70,4.57,7.32,2.74,2698.04,TARP,TARP,983.54,0.00,0.00,0.00,7,0,0,Yes
 Zone Information, TZ_CORE_GROUND,0.0,45.34,4.57,0.00,24.96,16.64,1.98,1,1,1,4.57,45.34,4.57,28.70,0.00,3.96,3.96,3897.17,TARP,TARP,983.54,0.00,0.00,0.00,6,0,0,Yes
 Zone Information, TZ_CORE_MID,0.0,0.00,0.00,4.57,24.96,16.64,9.91,1,1,1,4.57,45.34,4.57,28.70,8.53,11.28,2.74,2698.04,TARP,TARP,983.54,0.00,0.00,0.00,6,0,0,Yes
 Zone Information, TZ_CORE_TOP,0.0,0.00,0.00,4.57,24.96,16.64,13.87,1,1,1,4.57,45.34,4.57,28.70,12.50,15.24,2.74,2698.04,TARP,TARP,983.54,0.00,0.00,0.00,6,0,0,Yes
 Zone Information, TZ_FIRSTFLOOR_PLENUM,0.0,0.00,0.00,4.57,24.96,16.64,7.92,1,1,1,0.00,49.91,0.00,33.27,7.32,8.53,1.22,2024.76,TARP,TARP,1660.73,202.84,202.84,0.00,14,0,0,No
 Zone Information, TZ_GROUNDFLOOR_PLENUM,0.0,49.91,33.27,3.96,24.96,16.64,4.27,1,1,1,0.00,49.91,0.00,33.27,3.96,4.57,0.61,1012.38,TARP,TARP,1660.73,101.42,101.42,0.00,17,0,0,Yes
 Zone Information, TZ_MIDFLOOR_PLENUM,0.0,0.00,0.00,4.57,24.96,16.64,11.89,1,1,1,0.00,49.91,0.00,33.27,11.28,12.50,1.22,2024.76,TARP,TARP,1660.73,202.84,202.84,0.00,14,0,0,No
 Zone Information, TZ_PERIMETER_BOT_ZN_1,0.0,0.00,0.00,4.57,24.96,2.16,5.94,1,1,1,0.00,49.91,0.00,4.57,4.57,7.32,2.74,568.77,TARP,TARP,207.34,136.92,71.63,65.28,6,1,0,Yes
 Zone Information, TZ_PERIMETER_BOT_ZN_2,0.0,0.00,0.00,4.57,47.82,16.64,5.94,1,1,1,45.34,49.91,0.00,33.27,4.57,7.32,2.74,360.08,TARP,TARP,131.26,91.28,47.75,43.52,7,1,0,Yes
 Zone Information, TZ_PERIMETER_BOT_ZN_3,0.0,0.00,0.00,4.57,24.96,31.11,5.94,1,1,1,0.00,49.91,28.70,33.27,4.57,7.32,2.74,568.77,TARP,TARP,207.34,136.92,71.63,65.28,6,1,0,Yes
 Zone Information, TZ_PERIMETER_BOT_ZN_4,0.0,0.00,0.00,4.57,2.09,16.64,5.94,1,1,1,-2.05E-032,4.57,-1.72E-041,33.27,4.57,7.32,2.74,360.05,TARP,TARP,131.25,91.28,47.75,43.52,7,1,0,Yes
 Zone Information, TZ_PERIMETER_GROUND_ZN_1,0.0,49.91,0.00,0.00,24.96,2.15,1.98,1,1,1,0.00,49.91,0.00,4.57,0.00,3.96,3.96,821.56,TARP,TARP,207.34,197.77,39.55,158.21,6,1,0,Yes
 Zone Information, TZ_PERIMETER_GROUND_ZN_2,0.0,45.34,28.70,0.00,47.84,16.64,1.98,1,1,1,45.34,49.91,0.00,33.27,-9.92E-031,3.96,3.96,520.11,TARP,TARP,131.26,131.84,26.37,105.48,6,1,0,Yes
 Zone Information, TZ_PERIMETER_GROUND_ZN_3,0.0,0.00,33.27,0.00,24.96,31.13,1.98,1,1,1,0.00,49.91,28.70,33.27,0.00,3.96,3.96,821.56,TARP,TARP,207.34,197.77,39.55,158.21,6,1,0,Yes
 Zone Information, TZ_PERIMETER_GROUND_ZN_4,0.0,0.00,0.00,0.00,2.07,16.64,1.98,1,1,1,0.00,4.57,0.00,33.27,0.00,3.96,3.96,520.08,TARP,TARP,131.25,131.84,26.37,105.48,6,1,0,Yes
 Zone Information, TZ_PERIMETER_MID_ZN_1,0.0,0.00,0.00,4.57,24.96,2.16,9.91,1,1,1,0.00,49.91,0.00,4.57,8.53,11.28,2.74,568.77,TARP,TARP,207.34,136.92,71.63,65.28,6,1,0,Yes
 Zone Information, TZ_PERIMETER_MID_ZN_2,0.0,0.00,0.00,4.57,47.82,16.64,9.91,1,1,1,45.34,49.91,0.00,33.27,8.53,11.28,2.74,360.08,TARP,TARP,131.26,91.28,47.75,43.52,6,1,0,Yes
 Zone Information, TZ_PERIMETER_MID_ZN_3,0.0,0.00,0.00,4.57,24.96,31.11,9.91,1,1,1,0.00,49.91,28.70,33.27,8.53,11.28,2.74,568.77,TARP,TARP,207.34,136.92,71.63,65.28,6,1,0,Yes
 Zone Information, TZ_PERIMETER_MID_ZN_4,0.0,0.00,0.00,4.57,2.09,16.64,9.91,1,1,1,0.00,4.57,0.00,33.27,8.53,11.28,2.74,360.05,TARP,TARP,131.25,91.28,47.75,43.52,6,1,0,Yes
 Zone Information, TZ_PERIMETER_TOP_ZN_1,0.0,0.00,0.00,4.57,24.96,2.16,13.87,1,1,1,0.00,49.91,0.00,4.57,12.50,15.24,2.74,568.77,TARP,TARP,207.34,136.92,71.63,65.28,6,1,0,Yes
 Zone Information, TZ_PERIMETER_TOP_ZN_2,0.0,0.00,0.00,4.57,47.82,16.64,13.87,1,1,1,45.34,49.91,0.00,33.27,12.50,15.24,2.74,360.08,TARP,TARP,131.26,91.28,47.75,43.52,6,1,0,Yes
 Zone Information, TZ_PERIMETER_TOP_ZN_3,0.0,0.00,0.00,4.57,24.96,31.11,13.87,1,1,1,0.00,49.91,28.70,33.27,12.50,15.24,2.74,568.77,TARP,TARP,207.34,136.92,71.63,65.28,6,1,0,Yes
 Zone Information, TZ_PERIMETER_TOP_ZN_4,0.0,0.00,0.00,4.57,2.09,16.64,13.87,1,1,1,0.00,4.57,0.00,33.27,12.50,15.24,2.74,360.05,TARP,TARP,131.25,91.28,47.75,43.52,6,1,0,Yes
 Zone Information, TZ_TOPFLOOR_PLENUM,0.0,0.00,0.00,4.57,24.96,16.64,15.85,1,1,1,0.00,49.91,0.00,33.27,15.24,16.46,1.22,2024.76,TARP,TARP,1660.73,202.84,202.84,0.00,10,0,0,No
! <Zone Internal Gains Nominal>,Zone Name, Floor Area {m2},# Occupants,Area per Occupant {m2/person},Occupant per Area {person/m2},Interior Lighting {W/m2},Electric Load {W/m2},Gas Load {W/m2},Other Load {W/m2},Hot Water Eq {W/m2},Steam Equipment {W/m2},Sum Loads per Area {W/m2},Outdoor Controlled Baseboard Heat
 Zone Internal Gains Nominal, TZ_CORE_BOTTOM,983.54,52.9,18.581,5.382E-002,8.826,40.849,0.000,0.000,0.000,0.000,49.676,No
 Zone Internal Gains Nominal, TZ_CORE_GROUND,983.54,158.8,6.194,0.161,18.083,2.368,0.000,0.000,0.000,0.000,20.451,No
 Zone Internal Gains Nominal, TZ_CORE_MID,983.54,52.9,18.581,5.382E-002,8.826,8.073,0.000,0.000,0.000,0.000,16.899,No
 Zone Internal Gains Nominal, TZ_CORE_TOP,983.54,52.9,18.581,5.382E-002,8.826,8.073,0.000,0.000,0.000,0.000,16.899,No
 Zone Internal Gains Nominal, TZ_FIRSTFLOOR_PLENUM,1660.73,0.0,N/A,0.000,0.000,0.000,0.000,0.000,0.000,0.000,0.000,No
 Zone Internal Gains Nominal, TZ_GROUNDFLOOR_PLENUM,1660.73,0.0,N/A,0.000,0.000,0.000,0.000,0.000,0.000,0.000,0.000,No
 Zone Internal Gains Nominal, TZ_MIDFLOOR_PLENUM,1660.73,0.0,N/A,0.000,0.000,0.000,0.000,0.000,0.000,0.000,0.000,No
 Zone Internal Gains Nominal, TZ_PERIMETER_BOT_ZN_1,207.34,11.2,18.581,5.382E-002,8.826,8.073,0.000,0.000,0.000,0.000,16.899,No
 Zone Internal Gains Nominal, TZ_PERIMETER_BOT_ZN_2,131.26,7.1,18.581,5.382E-002,8.826,8.073,0.000,0.000,0.000,0.000,16.899,No
 Zone Internal Gains Nominal, TZ_PERIMETER_BOT_ZN_3,207.34,11.2,18.581,5.382E-002,8.826,8.073,0.000,0.000,0.000,0.000,16.899,No
 Zone Internal Gains Nominal, TZ_PERIMETER_BOT_ZN_4,131.25,7.1,18.581,5.382E-002,8.826,8.073,0.000,0.000,0.000,0.000,16.899,No
 Zone Internal Gains Nominal, TZ_PERIMETER_GROUND_ZN_1,207.34,33.5,6.194,0.161,18.083,2.368,0.000,0.000,0.000,0.000,20.451,No
 Zone Internal Gains Nominal, TZ_PERIMETER_GROUND_ZN_2,131.26,21.2,6.194,0.161,18.083,2.368,0.000,0.000,0.000,0.000,20.451,No
 Zone Internal Gains Nominal, TZ_PERIMETER_GROUND_ZN_3,207.34,33.5,6.194,0.161,18.083,2.368,0.000,0.000,0.000,0.000,20.451,No
 Zone Internal Gains Nominal, TZ_PERIMETER_GROUND_ZN_4,131.25,21.2,6.194,0.161,18.083,2.368,0.000,0.000,0.000,0.000,20.451,No
 Zone Internal Gains Nominal, TZ_PERIMETER_MID_ZN_1,207.34,11.2,18.581,5.382E-002,8.826,8.073,0.000,0.000,0.000,0.000,16.899,No
 Zone Internal Gains Nominal, TZ_PERIMETER_MID_ZN_2,131.26,7.1,18.581,5.382E-002,8.826,8.073,0.000,0.000,0.000,0.000,16.899,No
 Zone Internal Gains Nominal, TZ_PERIMETER_MID_ZN_3,207.34,11.2,18.581,5.382E-002,8.826,8.073,0.000,0.000,0.000,0.000,16.899,No
 Zone Internal Gains Nominal, TZ_PERIMETER_MID_ZN_4,131.25,7.1,18.581,5.382E-002,8.826,8.073,0.000,0.000,0.000,0.000,16.899,No
 Zone Internal Gains Nominal, TZ_PERIMETER_TOP_ZN_1,207.34,11.2,18.581,5.382E-002,8.826,8.073,0.000,0.000,0.000,0.000,16.899,No
 Zone Internal Gains Nominal, TZ_PERIMETER_TOP_ZN_2,131.26,7.1,18.581,5.382E-002,8.826,8.073,0.000,0.000,0.000,0.000,16.899,No
 Zone Internal Gains Nominal, TZ_PERIMETER_TOP_ZN_3,207.34,11.2,18.581,5.382E-002,8.826,8.073,0.000,0.000,0.000,0.000,16.899,No
 Zone Internal Gains Nominal, TZ_PERIMETER_TOP_ZN_4,131.25,7.1,18.581,5.382E-002,8.826,8.073,0.000,0.000,0.000,0.000,16.899,No
 Zone Internal Gains Nominal, TZ_TOPFLOOR_PLENUM,1660.73,0.0,N/A,0.000,0.000,0.000,0.000,0.000,0.000,0.000,0.000,No
! <People Internal Gains Nominal>,Name,Schedule Name,Zone Name,Zone Floor Area {m2},# Zone Occupants,Number of People {},People/Floor Area {person/m2},Floor Area per person {m2/person},Fraction Radiant,Fraction Convected,Sensible Fraction Calculation,Activity level,ASHRAE 55 Warnings,Carbon Dioxide Generation Rate,Nominal Minimum Number of People,Nominal Maximum Number of People
 People Internal Gains Nominal, TZ_CORE_GROUND 90.1-2010 - RETAIL - RETAIL PEOPLE,RETAIL BLDG OCC,TZ_CORE_GROUND,983.54,158.8,158.8,0.161,6.194,0.300,0.700,AutoCalculate,RETAIL ACTIVITY,No,3.8200E-008,0,159
 People Internal Gains Nominal, TZ_PERIMETER_GROUND_ZN_1 90.1-2010 - RETAIL - RETAIL PEOPLE,RETAIL BLDG OCC,TZ_PERIMETER_GROUND_ZN_1,207.34,33.5,33.5,0.161,6.194,0.300,0.700,AutoCalculate,RETAIL ACTIVITY,No,3.8200E-008,0,33
 People Internal Gains Nominal, TZ_PERIMETER_GROUND_ZN_2 90.1-2010 - RETAIL - RETAIL PEOPLE,RETAIL BLDG OCC,TZ_PERIMETER_GROUND_ZN_2,131.26,21.2,21.2,0.161,6.194,0.300,0.700,AutoCalculate,RETAIL ACTIVITY,No,3.8200E-008,0,21
 People Internal Gains Nominal, TZ_PERIMETER_GROUND_ZN_3 90.1-2010 - RETAIL - RETAIL PEOPLE,RETAIL BLDG OCC,TZ_PERIMETER_GROUND_ZN_3,207.34,33.5,33.5,0.161,6.194,0.300,0.700,AutoCalculate,RETAIL ACTIVITY,No,3.8200E-008,0,33
 People Internal Gains Nominal, TZ_PERIMETER_GROUND_ZN_4 90.1-2010 - RETAIL - RETAIL PEOPLE,RETAIL BLDG OCC,TZ_PERIMETER_GROUND_ZN_4,131.25,21.2,21.2,0.161,6.194,0.300,0.700,AutoCalculate,RETAIL ACTIVITY,No,3.8200E-008,0,21
 People Internal Gains Nominal, TZ_CORE_BOTTOM OFFICE WHOLEBUILDING - MD OFFICE PEOPLE,OFFICEMEDIUM BLDG_OCC_SCH,TZ_CORE_BOTTOM,983.54,52.9,52.9,5.382E-002,18.581,0.300,0.700,AutoCalculate,OFFICEMEDIUM ACTIVITY_SCH,No,3.8200E-008,0,53
 People Internal Gains Nominal, TZ_CORE_MID OFFICE WHOLEBUILDING - MD OFFICE PEOPLE,OFFICEMEDIUM BLDG_OCC_SCH,TZ_CORE_MID,983.54,52.9,52.9,5.382E-002,18.581,0.300,0.700,AutoCalculate,OFFICEMEDIUM ACTIVITY_SCH,No,3.8200E-008,0,53
 People Internal Gains Nominal, TZ_CORE_TOP OFFICE WHOLEBUILDING - MD OFFICE PEOPLE,OFFICEMEDIUM BLDG_OCC_SCH,TZ_CORE_TOP,983.54,52.9,52.9,5.382E-002,18.581,0.300,0.700,AutoCalculate,OFFICEMEDIUM ACTIVITY_SCH,No,3.8200E-008,0,53
 People Internal Gains Nominal, TZ_PERIMETER_BOT_ZN_1 OFFICE WHOLEBUILDING - MD OFFICE PEOPLE,OFFICEMEDIUM BLDG_OCC_SCH,TZ_PERIMETER_BOT_ZN_1,207.34,11.2,11.2,5.382E-002,18.581,0.300,0.700,AutoCalculate,OFFICEMEDIUM ACTIVITY_SCH,No,3.8200E-008,0,11
 People Internal Gains Nominal, TZ_PERIMETER_BOT_ZN_2 OFFICE WHOLEBUILDING - MD OFFICE PEOPLE,OFFICEMEDIUM BLDG_OCC_SCH,TZ_PERIMETER_BOT_ZN_2,131.26,7.1,7.1,5.382E-002,18.581,0.300,0.700,AutoCalculate,OFFICEMEDIUM ACTIVITY_SCH,No,3.8200E-008,0,7
 People Internal Gains Nominal, TZ_PERIMETER_BOT_ZN_3 OFFICE WHOLEBUILDING - MD OFFICE PEOPLE,OFFICEMEDIUM BLDG_OCC_SCH,TZ_PERIMETER_BOT_ZN_3,207.34,11.2,11.2,5.382E-002,18.581,0.300,0.700,AutoCalculate,OFFICEMEDIUM ACTIVITY_SCH,No,3.8200E-008,0,11
 People Internal Gains Nominal, TZ_PERIMETER_BOT_ZN_4 OFFICE WHOLEBUILDING - MD OFFICE PEOPLE,OFFICEMEDIUM BLDG_OCC_SCH,TZ_PERIMETER_BOT_ZN_4,131.25,7.1,7.1,5.382E-002,18.581,0.300,0.700,AutoCalculate,OFFICEMEDIUM ACTIVITY_SCH,No,3.8200E-008,0,7
 People Internal Gains Nominal, TZ_PERIMETER_MID_ZN_1 OFFICE WHOLEBUILDING - MD OFFICE PEOPLE,OFFICEMEDIUM BLDG_OCC_SCH,TZ_PERIMETER_MID_ZN_1,207.34,11.2,11.2,5.382E-002,18.581,0.300,0.700,AutoCalculate,OFFICEMEDIUM ACTIVITY_SCH,No,3.8200E-008,0,11
 People Internal Gains Nominal, TZ_PERIMETER_MID_ZN_2 OFFICE WHOLEBUILDING - MD OFFICE PEOPLE,OFFICEMEDIUM BLDG_OCC_SCH,TZ_PERIMETER_MID_ZN_2,131.26,7.1,7.1,5.382E-002,18.581,0.300,0.700,AutoCalculate,OFFICEMEDIUM ACTIVITY_SCH,No,3.8200E-008,0,7
 People Internal Gains Nominal, TZ_PERIMETER_MID_ZN_3 OFFICE WHOLEBUILDING - MD OFFICE PEOPLE,OFFICEMEDIUM BLDG_OCC_SCH,TZ_PERIMETER_MID_ZN_3,207.34,11.2,11.2,5.382E-002,18.581,0.300,0.700,AutoCalculate,OFFICEMEDIUM ACTIVITY_SCH,No,3.8200E-008,0,11
 People Internal Gains Nominal, TZ_PERIMETER_MID_ZN_4 OFFICE WHOLEBUILDING - MD OFFICE PEOPLE,OFFICEMEDIUM BLDG_OCC_SCH,TZ_PERIMETER_MID_ZN_4,131.25,7.1,7.1,5.382E-002,18.581,0.300,0.700,AutoCalculate,OFFICEMEDIUM ACTIVITY_SCH,No,3.8200E-008,0,7
 People Internal Gains Nominal, TZ_PERIMETER_TOP_ZN_1 OFFICE WHOLEBUILDING - MD OFFICE PEOPLE,OFFICEMEDIUM BLDG_OCC_SCH,TZ_PERIMETER_TOP_ZN_1,207.34,11.2,11.2,5.382E-002,18.581,0.300,0.700,AutoCalculate,OFFICEMEDIUM ACTIVITY_SCH,No,3.8200E-008,0,11
 People Internal Gains Nominal, TZ_PERIMETER_TOP_ZN_2 OFFICE WHOLEBUILDING - MD OFFICE PEOPLE,OFFICEMEDIUM BLDG_OCC_SCH,TZ_PERIMETER_TOP_ZN_2,131.26,7.1,7.1,5.382E-002,18.581,0.300,0.700,AutoCalculate,OFFICEMEDIUM ACTIVITY_SCH,No,3.8200E-008,0,7
 People Internal Gains Nominal, TZ_PERIMETER_TOP_ZN_3 OFFICE WHOLEBUILDING - MD OFFICE PEOPLE,OFFICEMEDIUM BLDG_OCC_SCH,TZ_PERIMETER_TOP_ZN_3,207.34,11.2,11.2,5.382E-002,18.581,0.300,0.700,AutoCalculate,OFFICEMEDIUM ACTIVITY_SCH,No,3.8200E-008,0,11
 People Internal Gains Nominal, TZ_PERIMETER_TOP_ZN_4 OFFICE WHOLEBUILDING - MD OFFICE PEOPLE,OFFICEMEDIUM BLDG_OCC_SCH,TZ_PERIMETER_TOP_ZN_4,131.25,7.1,7.1,5.382E-002,18.581,0.300,0.700,AutoCalculate,OFFICEMEDIUM ACTIVITY_SCH,No,3.8200E-008,0,7
! <Lights Internal Gains Nominal>,Name,Schedule Name,Zone Name,Zone Floor Area {m2},# Zone Occupants,Lighting Level {W},Lights/Floor Area {W/m2},Lights per person {W/person},Fraction Return Air,Fraction Radiant,Fraction Short Wave,Fraction Convected,Fraction Replaceable,End-Use Category,Nominal Minimum Lighting Level {W},Nominal Maximum Lighting Level {W}
 Lights Internal Gains Nominal, TZ_CORE_GROUND 90.1-2010 - RETAIL - RETAIL LIGHTS,RETAIL BLDG LIGHT,TZ_CORE_GROUND,983.54,158.8,17785.655,18.083,112.000,0.000,0.000,0.000,1.000,1.000,General,0.000,17785.655
 Lights Internal Gains Nominal, TZ_PERIMETER_GROUND_ZN_1 90.1-2010 - RETAIL - RETAIL LIGHTS,RETAIL BLDG LIGHT,TZ_PERIMETER_GROUND_ZN_1,207.34,33.5,3749.372,18.083,112.000,0.000,0.000,0.000,1.000,1.000,General,0.000,3749.372
 Lights Internal Gains Nominal, TZ_PERIMETER_GROUND_ZN_2 90.1-2010 - RETAIL - RETAIL LIGHTS,RETAIL BLDG LIGHT,TZ_PERIMETER_GROUND_ZN_2,131.26,21.2,2373.663,18.083,112.000,0.000,0.000,0.000,1.000,1.000,General,0.000,2373.663
 Lights Internal Gains Nominal, TZ_PERIMETER_GROUND_ZN_3 90.1-2010 - RETAIL - RETAIL LIGHTS,RETAIL BLDG LIGHT,TZ_PERIMETER_GROUND_ZN_3,207.34,33.5,3749.372,18.083,112.000,0.000,0.000,0.000,1.000,1.000,General,0.000,3749.372
 Lights Internal Gains Nominal, TZ_PERIMETER_GROUND_ZN_4 90.1-2010 - RETAIL - RETAIL LIGHTS,RETAIL BLDG LIGHT,TZ_PERIMETER_GROUND_ZN_4,131.25,21.2,2373.507,18.083,112.000,0.000,0.000,0.000,1.000,1.000,General,0.000,2373.507
 Lights Internal Gains Nominal, TZ_CORE_BOTTOM OFFICE WHOLEBUILDING - MD OFFICE LIGHTS,OFFICEMEDIUM BLDG_LIGHT_SCH_2013,TZ_CORE_BOTTOM,983.54,52.9,8681.094,8.826,164.000,0.000,0.700,0.200,0.100,1.000,General,0.000,8681.094
 Lights Internal Gains Nominal, TZ_CORE_MID OFFICE WHOLEBUILDING - MD OFFICE LIGHTS,OFFICEMEDIUM BLDG_LIGHT_SCH_2013,TZ_CORE_MID,983.54,52.9,8681.094,8.826,164.000,0.000,0.700,0.200,0.100,1.000,General,0.000,8681.094
 Lights Internal Gains Nominal, TZ_CORE_TOP OFFICE WHOLEBUILDING - MD OFFICE LIGHTS,OFFICEMEDIUM BLDG_LIGHT_SCH_2013,TZ_CORE_TOP,983.54,52.9,8681.094,8.826,164.000,0.000,0.700,0.200,0.100,1.000,General,0.000,8681.094
 Lights Internal Gains Nominal, TZ_PERIMETER_BOT_ZN_1 OFFICE WHOLEBUILDING - MD OFFICE LIGHTS,OFFICEMEDIUM BLDG_LIGHT_SCH_2013,TZ_PERIMETER_BOT_ZN_1,207.34,11.2,1830.051,8.826,164.000,0.000,0.700,0.200,0.100,1.000,General,0.000,1830.051
 Lights Internal Gains Nominal, TZ_PERIMETER_BOT_ZN_2 OFFICE WHOLEBUILDING - MD OFFICE LIGHTS,OFFICEMEDIUM BLDG_LIGHT_SCH_2013,TZ_PERIMETER_BOT_ZN_2,131.26,7.1,1158.573,8.826,164.000,0.000,0.700,0.200,0.100,1.000,General,0.000,1158.573
 Lights Internal Gains Nominal, TZ_PERIMETER_BOT_ZN_3 OFFICE WHOLEBUILDING - MD OFFICE LIGHTS,OFFICEMEDIUM BLDG_LIGHT_SCH_2013,TZ_PERIMETER_BOT_ZN_3,207.34,11.2,1830.051,8.826,164.000,0.000,0.700,0.200,0.100,1.000,General,0.000,1830.051
 Lights Internal Gains Nominal, TZ_PERIMETER_BOT_ZN_4 OFFICE WHOLEBUILDING - MD OFFICE LIGHTS,OFFICEMEDIUM BLDG_LIGHT_SCH_2013,TZ_PERIMETER_BOT_ZN_4,131.25,7.1,1158.497,8.826,164.000,0.000,0.700,0.200,0.100,1.000,General,0.000,1158.497
 Lights Internal Gains Nominal, TZ_PERIMETER_MID_ZN_1 OFFICE WHOLEBUILDING - MD OFFICE LIGHTS,OFFICEMEDIUM BLDG_LIGHT_SCH_2013,TZ_PERIMETER_MID_ZN_1,207.34,11.2,1830.051,8.826,164.000,0.000,0.700,0.200,0.100,1.000,General,0.000,1830.051
 Lights Internal Gains Nominal, TZ_PERIMETER_MID_ZN_2 OFFICE WHOLEBUILDING - MD OFFICE LIGHTS,OFFICEMEDIUM BLDG_LIGHT_SCH_2013,TZ_PERIMETER_MID_ZN_2,131.26,7.1,1158.573,8.826,164.000,0.000,0.700,0.200,0.100,1.000,General,0.000,1158.573
 Lights Internal Gains Nominal, TZ_PERIMETER_MID_ZN_3 OFFICE WHOLEBUILDING - MD OFFICE LIGHTS,OFFICEMEDIUM BLDG_LIGHT_SCH_2013,TZ_PERIMETER_MID_ZN_3,207.34,11.2,1830.051,8.826,164.000,0.000,0.700,0.200,0.100,1.000,General,0.000,1830.051
 Lights Internal Gains Nominal, TZ_PERIMETER_MID_ZN_4 OFFICE WHOLEBUILDING - MD OFFICE LIGHTS,OFFICEMEDIUM BLDG_LIGHT_SCH_2013,TZ_PERIMETER_MID_ZN_4,131.25,7.1,1158.497,8.826,164.000,0.000,0.700,0.200,0.100,1.000,General,0.000,1158.497
 Lights Internal Gains Nominal, TZ_PERIMETER_TOP_ZN_1 OFFICE WHOLEBUILDING - MD OFFICE LIGHTS,OFFICEMEDIUM BLDG_LIGHT_SCH_2013,TZ_PERIMETER_TOP_ZN_1,207.34,11.2,1830.051,8.826,164.000,0.000,0.700,0.200,0.100,1.000,General,0.000,1830.051
 Lights Internal Gains Nominal, TZ_PERIMETER_TOP_ZN_2 OFFICE WHOLEBUILDING - MD OFFICE LIGHTS,OFFICEMEDIUM BLDG_LIGHT_SCH_2013,TZ_PERIMETER_TOP_ZN_2,131.26,7.1,1158.573,8.826,164.000,0.000,0.700,0.200,0.100,1.000,General,0.000,1158.573
 Lights Internal Gains Nominal, TZ_PERIMETER_TOP_ZN_3 OFFICE WHOLEBUILDING - MD OFFICE LIGHTS,OFFICEMEDIUM BLDG_LIGHT_SCH_2013,TZ_PERIMETER_TOP_ZN_3,207.34,11.2,1830.051,8.826,164.000,0.000,0.700,0.200,0.100,1.000,General,0.000,1830.051
 Lights Internal Gains Nominal, TZ_PERIMETER_TOP_ZN_4 OFFICE WHOLEBUILDING - MD OFFICE LIGHTS,OFFICEMEDIUM BLDG_LIGHT_SCH_2013,TZ_PERIMETER_TOP_ZN_4,131.25,7.1,1158.497,8.826,164.000,0.000,0.700,0.200,0.100,1.000,General,0.000,1158.497
! <ElectricEquipment Internal Gains Nominal>,Name,Schedule Name,Zone Name,Zone Floor Area {m2},# Zone Occupants,Equipment Level {W},Equipment/Floor Area {W/m2},Equipment per person {W/person},Fraction Latent,Fraction Radiant,Fraction Lost,Fraction Convected,End-Use SubCategory,Nominal Minimum Equipment Level {W},Nominal Maximum Equipment Level {W}
 ElectricEquipment Internal Gains Nominal, 2 ELEVATOR FANS,OFFICEMEDIUM ELEV_LIGHT_FAN_SCH_ADD_DF,TZ_CORE_BOTTOM,983.54,52.9,61.915,6.295E-002,1.170,0.000,0.500,0.000,0.500,General,0.000,42.721
 ElectricEquipment Internal Gains Nominal, 2 ELEVATOR LIFT MOTORS,OFFICEMEDIUM BLDG_ELEVATORS,TZ_CORE_BOTTOM,983.54,52.9,32110.000,32.647,606.610,0.000,0.500,0.000,0.500,General,0.000,22155.900
 ElectricEquipment Internal Gains Nominal, 2 ELEVATOR LIGHTS,OFFICEMEDIUM ELEV_LIGHT_FAN_SCH_ADD_DF,TZ_CORE_BOTTOM,983.54,52.9,64.697,6.578E-002,1.222,0.000,0.500,0.000,0.500,General,0.000,44.641
 ElectricEquipment Internal Gains Nominal, TZ_CORE_GROUND 90.1-2010 - RETAIL - RETAIL ELECTRIC EQUIPMENT,RETAIL BLDG EQUIP,TZ_CORE_GROUND,983.54,158.8,2329.075,2.368,14.667,0.000,0.000,0.000,1.000,General,0.000,2329.075
 ElectricEquipment Internal Gains Nominal, TZ_PERIMETER_GROUND_ZN_1 90.1-2010 - RETAIL - RETAIL ELECTRIC EQUIPMENT,RETAIL BLDG EQUIP,TZ_PERIMETER_GROUND_ZN_1,207.34,33.5,490.989,2.368,14.667,0.000,0.000,0.000,1.000,General,0.000,490.989
 ElectricEquipment Internal Gains Nominal, TZ_PERIMETER_GROUND_ZN_2 90.1-2010 - RETAIL - RETAIL ELECTRIC EQUIPMENT,RETAIL BLDG EQUIP,TZ_PERIMETER_GROUND_ZN_2,131.26,21.2,310.837,2.368,14.667,0.000,0.000,0.000,1.000,General,0.000,310.837
 ElectricEquipment Internal Gains Nominal, TZ_PERIMETER_GROUND_ZN_3 90.1-2010 - RETAIL - RETAIL ELECTRIC EQUIPMENT,RETAIL BLDG EQUIP,TZ_PERIMETER_GROUND_ZN_3,207.34,33.5,490.989,2.368,14.667,0.000,0.000,0.000,1.000,General,0.000,490.989
 ElectricEquipment Internal Gains Nominal, TZ_PERIMETER_GROUND_ZN_4 90.1-2010 - RETAIL - RETAIL ELECTRIC EQUIPMENT,RETAIL BLDG EQUIP,TZ_PERIMETER_GROUND_ZN_4,131.25,21.2,310.817,2.368,14.667,0.000,0.000,0.000,1.000,General,0.000,310.817
 ElectricEquipment Internal Gains Nominal, TZ_CORE_BOTTOM OFFICE WHOLEBUILDING - MD OFFICE ELEC EQUIP,OFFICEMEDIUM BLDG_EQUIP_SCH_2013,TZ_CORE_BOTTOM,983.54,52.9,7940.025,8.073,150.000,0.000,0.500,0.000,0.500,General,0.000,7940.025
 ElectricEquipment Internal Gains Nominal, TZ_CORE_MID OFFICE WHOLEBUILDING - MD OFFICE ELEC EQUIP,OFFICEMEDIUM BLDG_EQUIP_SCH_2013,TZ_CORE_MID,983.54,52.9,7940.025,8.073,150.000,0.000,0.500,0.000,0.500,General,0.000,7940.025
 ElectricEquipment Internal Gains Nominal, TZ_CORE_TOP OFFICE WHOLEBUILDING - MD OFFICE ELEC EQUIP,OFFICEMEDIUM BLDG_EQUIP_SCH_2013,TZ_CORE_TOP,983.54,52.9,7940.025,8.073,150.000,0.000,0.500,0.000,0.500,General,0.000,7940.025
 ElectricEquipment Internal Gains Nominal, TZ_PERIMETER_BOT_ZN_1 OFFICE WHOLEBUILDING - MD OFFICE ELEC EQUIP,OFFICEMEDIUM BLDG_EQUIP_SCH_2013,TZ_PERIMETER_BOT_ZN_1,207.34,11.2,1673.827,8.073,150.000,0.000,0.500,0.000,0.500,General,0.000,1673.827
 ElectricEquipment Internal Gains Nominal, TZ_PERIMETER_BOT_ZN_2 OFFICE WHOLEBUILDING - MD OFFICE ELEC EQUIP,OFFICEMEDIUM BLDG_EQUIP_SCH_2013,TZ_PERIMETER_BOT_ZN_2,131.26,7.1,1059.671,8.073,150.000,0.000,0.500,0.000,0.500,General,0.000,1059.671
 ElectricEquipment Internal Gains Nominal, TZ_PERIMETER_BOT_ZN_3 OFFICE WHOLEBUILDING - MD OFFICE ELEC EQUIP,OFFICEMEDIUM BLDG_EQUIP_SCH_2013,TZ_PERIMETER_BOT_ZN_3,207.34,11.2,1673.827,8.073,150.000,0.000,0.500,0.000,0.500,General,0.000,1673.827
 ElectricEquipment Internal Gains Nominal, TZ_PERIMETER_BOT_ZN_4 OFFICE WHOLEBUILDING - MD OFFICE ELEC EQUIP,OFFICEMEDIUM BLDG_EQUIP_SCH_2013,TZ_PERIMETER_BOT_ZN_4,131.25,7.1,1059.601,8.073,150.000,0.000,0.500,0.000,0.500,General,0.000,1059.601
 ElectricEquipment Internal Gains Nominal, TZ_PERIMETER_MID_ZN_1 OFFICE WHOLEBUILDING - MD OFFICE ELEC EQUIP,OFFICEMEDIUM BLDG_EQUIP_SCH_2013,TZ_PERIMETER_MID_ZN_1,207.34,11.2,1673.827,8.073,150.000,0.000,0.500,0.000,0.500,General,0.000,1673.827
 ElectricEquipment Internal Gains Nominal, TZ_PERIMETER_MID_ZN_2 OFFICE WHOLEBUILDING - MD OFFICE ELEC EQUIP,OFFICEMEDIUM BLDG_EQUIP_SCH_2013,TZ_PERIMETER_MID_ZN_2,131.26,7.1,1059.671,8.073,150.000,0.000,0.500,0.000,0.500,General,0.000,1059.671
 ElectricEquipment Internal Gains Nominal, TZ_PERIMETER_MID_ZN_3 OFFICE WHOLEBUILDING - MD OFFICE ELEC EQUIP,OFFICEMEDIUM BLDG_EQUIP_SCH_2013,TZ_PERIMETER_MID_ZN_3,207.34,11.2,1673.827,8.073,150.000,0.000,0.500,0.000,0.500,General,0.000,1673.827
 ElectricEquipment Internal Gains Nominal, TZ_PERIMETER_MID_ZN_4 OFFICE WHOLEBUILDING - MD OFFICE ELEC EQUIP,OFFICEMEDIUM BLDG_EQUIP_SCH_2013,TZ_PERIMETER_MID_ZN_4,131.25,7.1,1059.601,8.073,150.000,0.000,0.500,0.000,0.500,General,0.000,1059.601
 ElectricEquipment Internal Gains Nominal, TZ_PERIMETER_TOP_ZN_1 OFFICE WHOLEBUILDING - MD OFFICE ELEC EQUIP,OFFICEMEDIUM BLDG_EQUIP_SCH_2013,TZ_PERIMETER_TOP_ZN_1,207.34,11.2,1673.827,8.073,150.000,0.000,0.500,0.000,0.500,General,0.000,1673.827
 ElectricEquipment Internal Gains Nominal, TZ_PERIMETER_TOP_ZN_2 OFFICE WHOLEBUILDING - MD OFFICE ELEC EQUIP,OFFICEMEDIUM BLDG_EQUIP_SCH_2013,TZ_PERIMETER_TOP_ZN_2,131.26,7.1,1059.671,8.073,150.000,0.000,0.500,0.000,0.500,General,0.000,1059.671
 ElectricEquipment Internal Gains Nominal, TZ_PERIMETER_TOP_ZN_3 OFFICE WHOLEBUILDING - MD OFFICE ELEC EQUIP,OFFICEMEDIUM BLDG_EQUIP_SCH_2013,TZ_PERIMETER_TOP_ZN_3,207.34,11.2,1673.827,8.073,150.000,0.000,0.500,0.000,0.500,General,0.000,1673.827
 ElectricEquipment Internal Gains Nominal, TZ_PERIMETER_TOP_ZN_4 OFFICE WHOLEBUILDING - MD OFFICE ELEC EQUIP,OFFICEMEDIUM BLDG_EQUIP_SCH_2013,TZ_PERIMETER_TOP_ZN_4,131.25,7.1,1059.601,8.073,150.000,0.000,0.500,0.000,0.500,General,0.000,1059.601
! <Shadowing/Sun Position Calculations Annual Simulations>, Calculation Method, Value {days}, Allowable Number Figures in Shadow Overlap {}, Polygon Clipping Algorithm, Sky Diffuse Modeling Algorithm, External Shading Calculation Method, Output External Shading Calculation Results, Disable Self-Shading Within Shading Zone Groups, Disable Self-Shading From Shading Zone Groups to Other Zones
Shadowing/Sun Position Calculations Annual Simulations,AverageOverDaysInFrequency,7,15000,SutherlandHodgman,SimpleSkyDiffuseModeling,InternalCalculation,No,No,No
! <Zone/Window Adjacency Daylighting Counts>, Zone Name, Number of Exterior Windows, Number of Exterior Windows in Adjacent Zones
Zone/Window Adjacency Daylighting Counts, TZ_PERIMETER_BOT_ZN_1,1,0
Zone/Window Adjacency Daylighting Counts, TZ_PERIMETER_BOT_ZN_2,1,0
Zone/Window Adjacency Daylighting Counts, TZ_PERIMETER_BOT_ZN_3,1,0
Zone/Window Adjacency Daylighting Counts, TZ_PERIMETER_BOT_ZN_4,1,0
Zone/Window Adjacency Daylighting Counts, TZ_PERIMETER_MID_ZN_1,1,0
Zone/Window Adjacency Daylighting Counts, TZ_PERIMETER_MID_ZN_2,1,0
Zone/Window Adjacency Daylighting Counts, TZ_PERIMETER_MID_ZN_3,1,0
Zone/Window Adjacency Daylighting Counts, TZ_PERIMETER_MID_ZN_4,1,0
Zone/Window Adjacency Daylighting Counts, TZ_PERIMETER_TOP_ZN_1,1,0
Zone/Window Adjacency Daylighting Counts, TZ_PERIMETER_TOP_ZN_2,1,0
Zone/Window Adjacency Daylighting Counts, TZ_PERIMETER_TOP_ZN_3,1,0
Zone/Window Adjacency Daylighting Counts, TZ_PERIMETER_TOP_ZN_4,1,0
! <Zone/Window Adjacency Daylighting Matrix>, Zone Name, Number of Adjacent Zones with Windows,Adjacent Zone Names - 1st 100 (max)
Zone/Window Adjacency Daylighting Matrix, TZ_PERIMETER_BOT_ZN_1,0
Zone/Window Adjacency Daylighting Matrix, TZ_PERIMETER_BOT_ZN_2,0
Zone/Window Adjacency Daylighting Matrix, TZ_PERIMETER_BOT_ZN_3,0
Zone/Window Adjacency Daylighting Matrix, TZ_PERIMETER_BOT_ZN_4,0
Zone/Window Adjacency Daylighting Matrix, TZ_PERIMETER_MID_ZN_1,0
Zone/Window Adjacency Daylighting Matrix, TZ_PERIMETER_MID_ZN_2,0
Zone/Window Adjacency Daylighting Matrix, TZ_PERIMETER_MID_ZN_3,0
Zone/Window Adjacency Daylighting Matrix, TZ_PERIMETER_MID_ZN_4,0
Zone/Window Adjacency Daylighting Matrix, TZ_PERIMETER_TOP_ZN_1,0
Zone/Window Adjacency Daylighting Matrix, TZ_PERIMETER_TOP_ZN_2,0
Zone/Window Adjacency Daylighting Matrix, TZ_PERIMETER_TOP_ZN_3,0
Zone/Window Adjacency Daylighting Matrix, TZ_PERIMETER_TOP_ZN_4,0
! <Water Heater Information>,Type,Name,Volume {m3},Maximum Capacity {W},Standard Rated Recovery Efficiency, Standard Rated Energy Factor
! <ZoneInfiltration Airflow Stats Nominal>,Name,Schedule Name,Zone Name, Zone Floor Area {m2}, # Zone Occupants,Design Volume Flow Rate {m3/s},Volume Flow Rate/Floor Area {m3/s-m2},Volume Flow Rate/Exterior Surface Area {m3/s-m2},ACH - Air Changes per Hour,Equation A - Constant Term Coefficient {},Equation B - Temperature Term Coefficient {1/C},Equation C - Velocity Term Coefficient {s/m}, Equation D - Velocity Squared Term Coefficient {s2/m2}
 ZoneInfiltration Airflow Stats Nominal, FIRSTFLOOR_PLENUM INFILTRATION,ALWAYS ON DISCRETE,TZ_FIRSTFLOOR_PLENUM,1660.73,0.0,0.116,6.957E-005,5.696E-004,0.205,0.000,0.000,0.224,0.000
 ZoneInfiltration Airflow Stats Nominal, MIDFLOOR_PLENUM INFILTRATION,ALWAYS ON DISCRETE,TZ_MIDFLOOR_PLENUM,1660.73,0.0,0.116,6.957E-005,5.696E-004,0.205,0.000,0.000,0.224,0.000
 ZoneInfiltration Airflow Stats Nominal, ENTRY DOOR INFILTRATION,OFFICEMEDIUM INFIL_DOOR_OPENING_SCH,TZ_PERIMETER_BOT_ZN_1,207.34,11.2,0.679,3.273E-003,4.957E-003,4.296,1.000,0.000,0.000,0.000
 ZoneInfiltration Airflow Stats Nominal, PERIMETER_BOT_ZN_1 INFILTRATION,OFFICEMEDIUM INFIL_SCH_PNNL,TZ_PERIMETER_BOT_ZN_1,207.34,11.2,7.798E-002,3.761E-004,5.696E-004,0.494,0.000,0.000,0.224,0.000
 ZoneInfiltration Airflow Stats Nominal, PERIMETER_BOT_ZN_2 INFILTRATION,OFFICEMEDIUM INFIL_SCH_PNNL,TZ_PERIMETER_BOT_ZN_2,131.26,7.1,5.199E-002,3.961E-004,5.696E-004,0.520,0.000,0.000,0.224,0.000
 ZoneInfiltration Airflow Stats Nominal, PERIMETER_BOT_ZN_3 INFILTRATION,OFFICEMEDIUM INFIL_SCH_PNNL,TZ_PERIMETER_BOT_ZN_3,207.34,11.2,7.798E-002,3.761E-004,5.696E-004,0.494,0.000,0.000,0.224,0.000
 ZoneInfiltration Airflow Stats Nominal, PERIMETER_BOT_ZN_4 INFILTRATION,OFFICEMEDIUM INFIL_SCH_PNNL,TZ_PERIMETER_BOT_ZN_4,131.25,7.1,5.199E-002,3.961E-004,5.696E-004,0.520,0.000,0.000,0.224,0.000
 ZoneInfiltration Airflow Stats Nominal, PERIMETER_MID_ZN_1 INFILTRATION,OFFICEMEDIUM INFIL_SCH_PNNL,TZ_PERIMETER_MID_ZN_1,207.34,11.2,7.798E-002,3.761E-004,5.696E-004,0.494,0.000,0.000,0.224,0.000
 ZoneInfiltration Airflow Stats Nominal, PERIMETER_MID_ZN_2 INFILTRATION,OFFICEMEDIUM INFIL_SCH_PNNL,TZ_PERIMETER_MID_ZN_2,131.26,7.1,5.199E-002,3.961E-004,5.696E-004,0.520,0.000,0.000,0.224,0.000
 ZoneInfiltration Airflow Stats Nominal, PERIMETER_MID_ZN_3 INFILTRATION,OFFICEMEDIUM INFIL_SCH_PNNL,TZ_PERIMETER_MID_ZN_3,207.34,11.2,7.798E-002,3.761E-004,5.696E-004,0.494,0.000,0.000,0.224,0.000
 ZoneInfiltration Airflow Stats Nominal, PERIMETER_MID_ZN_4 INFILTRATION,OFFICEMEDIUM INFIL_SCH_PNNL,TZ_PERIMETER_MID_ZN_4,131.25,7.1,5.199E-002,3.961E-004,5.696E-004,0.520,0.000,0.000,0.224,0.000
 ZoneInfiltration Airflow Stats Nominal, PERIMETER_TOP_ZN_1 INFILTRATION,OFFICEMEDIUM INFIL_SCH_PNNL,TZ_PERIMETER_TOP_ZN_1,207.34,11.2,7.798E-002,3.761E-004,5.696E-004,0.494,0.000,0.000,0.224,0.000
 ZoneInfiltration Airflow Stats Nominal, PERIMETER_TOP_ZN_2 INFILTRATION,OFFICEMEDIUM INFIL_SCH_PNNL,TZ_PERIMETER_TOP_ZN_2,131.26,7.1,5.199E-002,3.961E-004,5.696E-004,0.520,0.000,0.000,0.224,0.000
 ZoneInfiltration Airflow Stats Nominal, PERIMETER_TOP_ZN_3 INFILTRATION,OFFICEMEDIUM INFIL_SCH_PNNL,TZ_PERIMETER_TOP_ZN_3,207.34,11.2,7.798E-002,3.761E-004,5.696E-004,0.494,0.000,0.000,0.224,0.000
 ZoneInfiltration Airflow Stats Nominal, PERIMETER_TOP_ZN_4 INFILTRATION,OFFICEMEDIUM INFIL_SCH_PNNL,TZ_PERIMETER_TOP_ZN_4,131.25,7.1,5.199E-002,3.961E-004,5.696E-004,0.520,0.000,0.000,0.224,0.000
 ZoneInfiltration Airflow Stats Nominal, TOPFLOOR_PLENUM INFILTRATION,ALWAYS ON DISCRETE,TZ_TOPFLOOR_PLENUM,1660.73,0.0,0.116,6.957E-005,6.199E-005,0.205,0.000,0.000,0.224,0.000
 ZoneInfiltration Airflow Stats Nominal, TZ_CORE_GROUND 90.1-2010 - RETAIL - RETAIL INFILTRATION,RETAIL INFIL HALF ON,TZ_CORE_GROUND,983.54,158.8,0.000,0.000,N/A,0.000,1.000,0.000,0.000,0.000
 ZoneInfiltration Airflow Stats Nominal, TZ_PERIMETER_GROUND_ZN_1 90.1-2010 - RETAIL - RETAIL INFILTRATION,RETAIL INFIL HALF ON,TZ_PERIMETER_GROUND_ZN_1,207.34,33.5,4.481E-002,2.161E-004,2.266E-004,0.196,1.000,0.000,0.000,0.000
 ZoneInfiltration Airflow Stats Nominal, TZ_PERIMETER_GROUND_ZN_2 90.1-2010 - RETAIL - RETAIL INFILTRATION,RETAIL INFIL HALF ON,TZ_PERIMETER_GROUND_ZN_2,131.26,21.2,2.987E-002,2.276E-004,2.266E-004,0.207,1.000,0.000,0.000,0.000
 ZoneInfiltration Airflow Stats Nominal, TZ_PERIMETER_GROUND_ZN_3 90.1-2010 - RETAIL - RETAIL INFILTRATION,RETAIL INFIL HALF ON,TZ_PERIMETER_GROUND_ZN_3,207.34,33.5,4.481E-002,2.161E-004,2.266E-004,0.196,1.000,0.000,0.000,0.000
 ZoneInfiltration Airflow Stats Nominal, TZ_PERIMETER_GROUND_ZN_4 90.1-2010 - RETAIL - RETAIL INFILTRATION,RETAIL INFIL HALF ON,TZ_PERIMETER_GROUND_ZN_4,131.25,21.2,2.987E-002,2.276E-004,2.266E-004,0.207,1.000,0.000,0.000,0.000
! <AirFlow Model>, Simple
 AirFlow Model, Simple
! <RoomAir Model>, Zone Name, Mixing/Mundt/UCSDDV/UCSDCV/UCSDUFI/UCSDUFE/User Defined
RoomAir Model,TZ_CORE_BOTTOM,Mixing/Well-Stirred
RoomAir Model,TZ_CORE_GROUND,Mixing/Well-Stirred
RoomAir Model,TZ_CORE_MID,Mixing/Well-Stirred
RoomAir Model,TZ_CORE_TOP,Mixing/Well-Stirred
RoomAir Model,TZ_FIRSTFLOOR_PLENUM,Mixing/Well-Stirred
RoomAir Model,TZ_GROUNDFLOOR_PLENUM,Mixing/Well-Stirred
RoomAir Model,TZ_MIDFLOOR_PLENUM,Mixing/Well-Stirred
RoomAir Model,TZ_PERIMETER_BOT_ZN_1,Mixing/Well-Stirred
RoomAir Model,TZ_PERIMETER_BOT_ZN_2,Mixing/Well-Stirred
RoomAir Model,TZ_PERIMETER_BOT_ZN_3,Mixing/Well-Stirred
RoomAir Model,TZ_PERIMETER_BOT_ZN_4,Mixing/Well-Stirred
RoomAir Model,TZ_PERIMETER_GROUND_ZN_1,Mixing/Well-Stirred
RoomAir Model,TZ_PERIMETER_GROUND_ZN_2,Mixing/Well-Stirred
RoomAir Model,TZ_PERIMETER_GROUND_ZN_3,Mixing/Well-Stirred
RoomAir Model,TZ_PERIMETER_GROUND_ZN_4,Mixing/Well-Stirred
RoomAir Model,TZ_PERIMETER_MID_ZN_1,Mixing/Well-Stirred
RoomAir Model,TZ_PERIMETER_MID_ZN_2,Mixing/Well-Stirred
RoomAir Model,TZ_PERIMETER_MID_ZN_3,Mixing/Well-Stirred
RoomAir Model,TZ_PERIMETER_MID_ZN_4,Mixing/Well-Stirred
RoomAir Model,TZ_PERIMETER_TOP_ZN_1,Mixing/Well-Stirred
RoomAir Model,TZ_PERIMETER_TOP_ZN_2,Mixing/Well-Stirred
RoomAir Model,TZ_PERIMETER_TOP_ZN_3,Mixing/Well-Stirred
RoomAir Model,TZ_PERIMETER_TOP_ZN_4,Mixing/Well-Stirred
RoomAir Model,TZ_TOPFLOOR_PLENUM,Mixing/Well-Stirred
! <AirflowNetwork Model:Control>, No Multizone or Distribution/Multizone with Distribution/Multizone without Distribution/Multizone with Distribution only during Fan Operation
AirflowNetwork Model:Control,NoMultizoneOrDistribution
! <Zone Volume Capacitance Multiplier>, Sensible Heat Capacity Multiplier, Moisture Capacity Multiplier, Carbon Dioxide Capacity Multiplier, Generic Contaminant Capacity Multiplier
Zone Volume Capacitance Multiplier,   1.000 ,   1.000,   1.000,   1.000
! <Zone Sizing DOAS Inputs>, Zone Name, DOAS Design Control Strategy, DOAS Design Low Setpoint Temperature {C}, DOAS Design High Setpoint Temperature {C} 
 Zone Sizing DOAS Inputs, TZ_CORE_BOTTOM, NeutralSupplyAir, 15.556, 21.111
 Zone Sizing DOAS Inputs, TZ_CORE_GROUND, NeutralSupplyAir, 15.556, 21.111
 Zone Sizing DOAS Inputs, TZ_CORE_MID, NeutralSupplyAir, 15.556, 21.111
 Zone Sizing DOAS Inputs, TZ_CORE_TOP, NeutralSupplyAir, 15.556, 21.111
 Zone Sizing DOAS Inputs, TZ_PERIMETER_BOT_ZN_1, NeutralSupplyAir, 15.556, 21.111
 Zone Sizing DOAS Inputs, TZ_PERIMETER_BOT_ZN_2, NeutralSupplyAir, 15.556, 21.111
 Zone Sizing DOAS Inputs, TZ_PERIMETER_BOT_ZN_3, NeutralSupplyAir, 15.556, 21.111
 Zone Sizing DOAS Inputs, TZ_PERIMETER_BOT_ZN_4, NeutralSupplyAir, 15.556, 21.111
 Zone Sizing DOAS Inputs, TZ_PERIMETER_GROUND_ZN_1, NeutralSupplyAir, 15.556, 21.111
 Zone Sizing DOAS Inputs, TZ_PERIMETER_GROUND_ZN_2, NeutralSupplyAir, 15.556, 21.111
 Zone Sizing DOAS Inputs, TZ_PERIMETER_GROUND_ZN_3, NeutralSupplyAir, 15.556, 21.111
 Zone Sizing DOAS Inputs, TZ_PERIMETER_GROUND_ZN_4, NeutralSupplyAir, 15.556, 21.111
 Zone Sizing DOAS Inputs, TZ_PERIMETER_MID_ZN_1, NeutralSupplyAir, 15.556, 21.111
 Zone Sizing DOAS Inputs, TZ_PERIMETER_MID_ZN_2, NeutralSupplyAir, 15.556, 21.111
 Zone Sizing DOAS Inputs, TZ_PERIMETER_MID_ZN_3, NeutralSupplyAir, 15.556, 21.111
 Zone Sizing DOAS Inputs, TZ_PERIMETER_MID_ZN_4, NeutralSupplyAir, 15.556, 21.111
 Zone Sizing DOAS Inputs, TZ_PERIMETER_TOP_ZN_1, NeutralSupplyAir, 15.556, 21.111
 Zone Sizing DOAS Inputs, TZ_PERIMETER_TOP_ZN_2, NeutralSupplyAir, 15.556, 21.111
 Zone Sizing DOAS Inputs, TZ_PERIMETER_TOP_ZN_3, NeutralSupplyAir, 15.556, 21.111
 Zone Sizing DOAS Inputs, TZ_PERIMETER_TOP_ZN_4, NeutralSupplyAir, 15.556, 21.111
! <Load Timesteps in Zone Design Calculation Averaging Window>, Value
 Load Timesteps in Zone Design Calculation Averaging Window,    6
! <Heating Sizing Factor Information>, Sizing Factor ID, Value
 Heating Sizing Factor Information, Global,   1.0000    
! <Cooling Sizing Factor Information>, Sizing Factor ID, Value
 Cooling Sizing Factor Information, Global,   1.0000    
! <Sky Daylight Factors>, MonthAndDay, Zone Name, Window Name, Daylight Fac: Ref Pt #1, Daylight Fac: Ref Pt #2
 Clear Sky Daylight Factors,07/21,TZ_PERIMETER_BOT_ZN_1,PERIMETER_BOT_ZN_1 - WALL 180_A - SUB:A,7.7213E-002,3.6727E-002
 Clear Turbid Sky Daylight Factors,07/21,TZ_PERIMETER_BOT_ZN_1,PERIMETER_BOT_ZN_1 - WALL 180_A - SUB:A,7.4415E-002,3.3910E-002
 Intermediate Sky Daylight Factors,07/21,TZ_PERIMETER_BOT_ZN_1,PERIMETER_BOT_ZN_1 - WALL 180_A - SUB:A,5.9918E-002,2.4501E-002
 Overcast Sky Daylight Factors,07/21,TZ_PERIMETER_BOT_ZN_1,PERIMETER_BOT_ZN_1 - WALL 180_A - SUB:A,5.2979E-002,2.1484E-002
 Clear Sky Daylight Factors,07/21,TZ_PERIMETER_BOT_ZN_2,PERIMETER_BOT_ZN_2 - WALL 090_A - SUB:A,5.3391E-002,2.7620E-002
 Clear Turbid Sky Daylight Factors,07/21,TZ_PERIMETER_BOT_ZN_2,PERIMETER_BOT_ZN_2 - WALL 090_A - SUB:A,4.6986E-002,2.3639E-002
 Intermediate Sky Daylight Factors,07/21,TZ_PERIMETER_BOT_ZN_2,PERIMETER_BOT_ZN_2 - WALL 090_A - SUB:A,3.8036E-002,1.6523E-002
 Overcast Sky Daylight Factors,07/21,TZ_PERIMETER_BOT_ZN_2,PERIMETER_BOT_ZN_2 - WALL 090_A - SUB:A,5.3492E-002,2.1803E-002
 Clear Sky Daylight Factors,07/21,TZ_PERIMETER_BOT_ZN_3,PERIMETER_BOT_ZN_3 - WALL 000_A - SUB:A,4.1696E-002,2.3166E-002
 Clear Turbid Sky Daylight Factors,07/21,TZ_PERIMETER_BOT_ZN_3,PERIMETER_BOT_ZN_3 - WALL 000_A - SUB:A,3.4161E-002,1.8696E-002
 Intermediate Sky Daylight Factors,07/21,TZ_PERIMETER_BOT_ZN_3,PERIMETER_BOT_ZN_3 - WALL 000_A - SUB:A,2.4486E-002,1.1116E-002
 Overcast Sky Daylight Factors,07/21,TZ_PERIMETER_BOT_ZN_3,PERIMETER_BOT_ZN_3 - WALL 000_A - SUB:A,5.2979E-002,2.1484E-002
 Clear Sky Daylight Factors,07/21,TZ_PERIMETER_BOT_ZN_4,PERIMETER_BOT_ZN_4 - WALL 270_A - SUB:A,5.4180E-002,2.7924E-002
 Clear Turbid Sky Daylight Factors,07/21,TZ_PERIMETER_BOT_ZN_4,PERIMETER_BOT_ZN_4 - WALL 270_A - SUB:A,4.7872E-002,2.3977E-002
 Intermediate Sky Daylight Factors,07/21,TZ_PERIMETER_BOT_ZN_4,PERIMETER_BOT_ZN_4 - WALL 270_A - SUB:A,3.8843E-002,1.6831E-002
 Overcast Sky Daylight Factors,07/21,TZ_PERIMETER_BOT_ZN_4,PERIMETER_BOT_ZN_4 - WALL 270_A - SUB:A,5.3492E-002,2.1804E-002
 Clear Sky Daylight Factors,07/21,TZ_PERIMETER_MID_ZN_1,PERIMETER_MID_ZN_1 - WALL 180_A - SUB:A,7.8066E-002,3.7580E-002
 Clear Turbid Sky Daylight Factors,07/21,TZ_PERIMETER_MID_ZN_1,PERIMETER_MID_ZN_1 - WALL 180_A - SUB:A,7.5229E-002,3.4724E-002
 Intermediate Sky Daylight Factors,07/21,TZ_PERIMETER_MID_ZN_1,PERIMETER_MID_ZN_1 - WALL 180_A - SUB:A,6.0512E-002,2.5095E-002
 Overcast Sky Daylight Factors,07/21,TZ_PERIMETER_MID_ZN_1,PERIMETER_MID_ZN_1 - WALL 180_A - SUB:A,5.3411E-002,2.1915E-002
 Clear Sky Daylight Factors,07/21,TZ_PERIMETER_MID_ZN_2,PERIMETER_MID_ZN_2 - WALL 090_A - SUB:A,5.3932E-002,2.8161E-002
 Clear Turbid Sky Daylight Factors,07/21,TZ_PERIMETER_MID_ZN_2,PERIMETER_MID_ZN_2 - WALL 090_A - SUB:A,4.7431E-002,2.4085E-002
 Intermediate Sky Daylight Factors,07/21,TZ_PERIMETER_MID_ZN_2,PERIMETER_MID_ZN_2 - WALL 090_A - SUB:A,3.8327E-002,1.6814E-002
 Overcast Sky Daylight Factors,07/21,TZ_PERIMETER_MID_ZN_2,PERIMETER_MID_ZN_2 - WALL 090_A - SUB:A,5.3935E-002,2.2246E-002
 Clear Sky Daylight Factors,07/21,TZ_PERIMETER_MID_ZN_3,PERIMETER_MID_ZN_3 - WALL 000_A - SUB:A,4.2072E-002,2.3543E-002
 Clear Turbid Sky Daylight Factors,07/21,TZ_PERIMETER_MID_ZN_3,PERIMETER_MID_ZN_3 - WALL 000_A - SUB:A,3.4425E-002,1.8960E-002
 Intermediate Sky Daylight Factors,07/21,TZ_PERIMETER_MID_ZN_3,PERIMETER_MID_ZN_3 - WALL 000_A - SUB:A,2.4590E-002,1.1221E-002
 Overcast Sky Daylight Factors,07/21,TZ_PERIMETER_MID_ZN_3,PERIMETER_MID_ZN_3 - WALL 000_A - SUB:A,5.3411E-002,2.1915E-002
 Clear Sky Daylight Factors,07/21,TZ_PERIMETER_MID_ZN_4,PERIMETER_MID_ZN_4 - WALL 270_A - SUB:A,5.4732E-002,2.8476E-002
 Clear Turbid Sky Daylight Factors,07/21,TZ_PERIMETER_MID_ZN_4,PERIMETER_MID_ZN_4 - WALL 270_A - SUB:A,4.8330E-002,2.4435E-002
 Intermediate Sky Daylight Factors,07/21,TZ_PERIMETER_MID_ZN_4,PERIMETER_MID_ZN_4 - WALL 270_A - SUB:A,3.9145E-002,1.7134E-002
 Overcast Sky Daylight Factors,07/21,TZ_PERIMETER_MID_ZN_4,PERIMETER_MID_ZN_4 - WALL 270_A - SUB:A,5.3935E-002,2.2247E-002
 Clear Sky Daylight Factors,07/21,TZ_PERIMETER_TOP_ZN_1,PERIMETER_TOP_ZN_1 - WALL 180_A - SUB:A,7.8066E-002,3.7580E-002
 Clear Turbid Sky Daylight Factors,07/21,TZ_PERIMETER_TOP_ZN_1,PERIMETER_TOP_ZN_1 - WALL 180_A - SUB:A,7.5229E-002,3.4724E-002
 Intermediate Sky Daylight Factors,07/21,TZ_PERIMETER_TOP_ZN_1,PERIMETER_TOP_ZN_1 - WALL 180_A - SUB:A,6.0512E-002,2.5095E-002
 Overcast Sky Daylight Factors,07/21,TZ_PERIMETER_TOP_ZN_1,PERIMETER_TOP_ZN_1 - WALL 180_A - SUB:A,5.3411E-002,2.1915E-002
 Clear Sky Daylight Factors,07/21,TZ_PERIMETER_TOP_ZN_2,PERIMETER_TOP_ZN_2 - WALL 090_A - SUB:A,5.3932E-002,2.8161E-002
 Clear Turbid Sky Daylight Factors,07/21,TZ_PERIMETER_TOP_ZN_2,PERIMETER_TOP_ZN_2 - WALL 090_A - SUB:A,4.7431E-002,2.4085E-002
 Intermediate Sky Daylight Factors,07/21,TZ_PERIMETER_TOP_ZN_2,PERIMETER_TOP_ZN_2 - WALL 090_A - SUB:A,3.8327E-002,1.6814E-002
 Overcast Sky Daylight Factors,07/21,TZ_PERIMETER_TOP_ZN_2,PERIMETER_TOP_ZN_2 - WALL 090_A - SUB:A,5.3935E-002,2.2246E-002
 Clear Sky Daylight Factors,07/21,TZ_PERIMETER_TOP_ZN_3,PERIMETER_TOP_ZN_3 - WALL 000_A - SUB:A,4.2072E-002,2.3543E-002
 Clear Turbid Sky Daylight Factors,07/21,TZ_PERIMETER_TOP_ZN_3,PERIMETER_TOP_ZN_3 - WALL 000_A - SUB:A,3.4425E-002,1.8960E-002
 Intermediate Sky Daylight Factors,07/21,TZ_PERIMETER_TOP_ZN_3,PERIMETER_TOP_ZN_3 - WALL 000_A - SUB:A,2.4590E-002,1.1221E-002
 Overcast Sky Daylight Factors,07/21,TZ_PERIMETER_TOP_ZN_3,PERIMETER_TOP_ZN_3 - WALL 000_A - SUB:A,5.3411E-002,2.1915E-002
 Clear Sky Daylight Factors,07/21,TZ_PERIMETER_TOP_ZN_4,PERIMETER_TOP_ZN_4 - WALL 270_A - SUB:A,5.4732E-002,2.8476E-002
 Clear Turbid Sky Daylight Factors,07/21,TZ_PERIMETER_TOP_ZN_4,PERIMETER_TOP_ZN_4 - WALL 270_A - SUB:A,4.8330E-002,2.4435E-002
 Intermediate Sky Daylight Factors,07/21,TZ_PERIMETER_TOP_ZN_4,PERIMETER_TOP_ZN_4 - WALL 270_A - SUB:A,3.9145E-002,1.7134E-002
 Overcast Sky Daylight Factors,07/21,TZ_PERIMETER_TOP_ZN_4,PERIMETER_TOP_ZN_4 - WALL 270_A - SUB:A,5.3935E-002,2.2247E-002
! <Zone Sizing Information>, Zone Name, Load Type, Calc Des Load {W}, User Des Load {W}, Calc Des Air Flow Rate {m3/s}, User Des Air Flow Rate {m3/s}, Design Day Name, Date/Time of Peak, Temperature at Peak {C}, Humidity Ratio at Peak {kgWater/kgDryAir}, Floor Area {m2}, # Occupants, Calc Outdoor Air Flow Rate {m3/s}, Calc DOAS Heat Addition Rate {W}
 Zone Sizing Information, TZ_CORE_BOTTOM, Cooling, 48651.84343, 48651.84343, 3.58495, 3.58495, CHICAGO OHARE INTL AP ANN CLG .4% CONDNS DB=>MWB, 7/21 08:00:00, 25.53000, 1.49611E-002, 983.53657, 52.93350, 0.42469, -1293.26118
 Zone Sizing Information, TZ_CORE_BOTTOM, Heating, 15108.74390, 15108.74390, 0.66294, 0.66294, CHICAGO OHARE INTL AP ANN HTG 99.6% CONDNS DB, 1/21 08:20:00, -20.00000, 6.49857E-004, 983.53657, 52.93350, 0.42469, -2323.16502
 Zone Sizing Information, TZ_CORE_GROUND, Cooling, 49735.37690, 49735.37690, 3.31951, 3.31951, CHICAGO OHARE INTL AP ANN CLG .4% CONDNS DB=>MWB, 7/21 07:00:00, 23.74500, 1.49611E-002, 983.53657, 158.80049, 1.16166, -3689.37853
 Zone Sizing Information, TZ_CORE_GROUND, Heating, 1549.70306, 1549.70306, 0.12670, 1.16166, CHICAGO OHARE INTL AP ANN CLG .4% CONDNS DB=>MWB, 7/21 23:30:00, 25.05750, 1.49611E-002, 983.53657, 158.80049, 1.16166, -10610.81175
 Zone Sizing Information, TZ_CORE_MID, Cooling, 29223.89428, 29223.89428, 2.15038, 2.15038, CHICAGO OHARE INTL AP ANN CLG .4% CONDNS DB=>MWB, 7/21 08:00:00, 25.53000, 1.49611E-002, 983.53657, 52.93350, 0.42469, -1292.11787
 Zone Sizing Information, TZ_CORE_MID, Heating, 17833.80406, 17833.80406, 0.77422, 0.77422, CHICAGO OHARE INTL AP ANN HTG 99.6% CONDNS DB, 1/21 08:00:00, -20.00000, 6.49857E-004, 983.53657, 52.93350, 0.42469, -2307.41187
 Zone Sizing Information, TZ_CORE_TOP, Cooling, 29488.11789, 29488.11789, 2.16988, 2.16988, CHICAGO OHARE INTL AP ANN CLG .4% CONDNS DB=>MWB, 7/21 08:00:00, 25.53000, 1.49611E-002, 983.53657, 52.93350, 0.42469, -1292.14107
 Zone Sizing Information, TZ_CORE_TOP, Heating, 29206.24169, 29206.24169, 1.27209, 1.27209, CHICAGO OHARE INTL AP ANN HTG 99.6% CONDNS DB, 1/21 08:00:00, -20.00000, 6.49857E-004, 983.53657, 52.93350, 0.42469, -2303.07856
 Zone Sizing Information, TZ_PERIMETER_BOT_ZN_1, Cooling, 11963.65277, 11963.65277, 0.88852, 0.88852, CHICAGO OHARE INTL AP ANN CLG .4% CONDNS DB=>MWB, 7/21 13:00:00, 32.77500, 1.49611E-002, 207.33814, 11.15885, 8.95286E-002, -266.57870
 Zone Sizing Information, TZ_PERIMETER_BOT_ZN_1, Heating, 10348.64739, 10348.64739, 0.45160, 0.45160, CHICAGO OHARE INTL AP ANN HTG 99.6% CONDNS DB, 1/21 08:00:00, -20.00000, 6.49857E-004, 207.33814, 11.15885, 8.95286E-002, -485.24080
 Zone Sizing Information, TZ_PERIMETER_BOT_ZN_2, Cooling, 10981.37387, 10981.37387, 0.81554, 0.81554, CHICAGO OHARE INTL AP ANN CLG .4% CONDNS DB=>MWB, 7/21 08:20:00, 26.19500, 1.49611E-002, 131.26219, 7.06447, 5.66790E-002, -168.78353
 Zone Sizing Information, TZ_PERIMETER_BOT_ZN_2, Heating, 6719.34287, 6719.34287, 0.29324, 0.29324, CHICAGO OHARE INTL AP ANN HTG 99.6% CONDNS DB, 1/21 08:00:00, -20.00000, 6.49857E-004, 131.26219, 7.06447, 5.66790E-002, -307.19808
 Zone Sizing Information, TZ_PERIMETER_BOT_ZN_3, Cooling, 8213.47847, 8213.47847, 0.61000, 0.61000, CHICAGO OHARE INTL AP ANN CLG .4% CONDNS DB=>MWB, 7/21 14:20:00, 33.30000, 1.49611E-002, 207.33814, 11.15885, 8.95286E-002, -266.57689
 Zone Sizing Information, TZ_PERIMETER_BOT_ZN_3, Heating, 10231.41037, 10231.41037, 0.44647, 0.44647, CHICAGO OHARE INTL AP ANN HTG 99.6% CONDNS DB, 1/21 08:00:00, -20.00000, 6.49857E-004, 207.33814, 11.15885, 8.95286E-002, -485.24077
 Zone Sizing Information, TZ_PERIMETER_BOT_ZN_4, Cooling, 11048.78918, 11048.78918, 0.82057, 0.82057, CHICAGO OHARE INTL AP ANN CLG .4% CONDNS DB=>MWB, 7/21 16:50:00, 31.97000, 1.49611E-002, 131.25358, 7.06401, 5.66753E-002, -168.75957
 Zone Sizing Information, TZ_PERIMETER_BOT_ZN_4, Heating, 6808.93245, 6808.93245, 0.29716, 0.29716, CHICAGO OHARE INTL AP ANN HTG 99.6% CONDNS DB, 1/21 08:00:00, -20.00000, 6.49857E-004, 131.25358, 7.06401, 5.66753E-002, -307.17734
 Zone Sizing Information, TZ_PERIMETER_GROUND_ZN_1, Cooling, 19190.66108, 19190.66108, 1.42581, 1.42581, CHICAGO OHARE INTL AP ANN CLG .4% CONDNS DB=>MWB, 7/21 12:50:00, 32.63500, 1.49611E-002, 207.33814, 33.47654, 0.24489, -728.07341
 Zone Sizing Information, TZ_PERIMETER_GROUND_ZN_1, Heating, 10406.96313, 10406.96313, 0.45652, 0.45652, CHICAGO OHARE INTL AP ANN HTG 99.6% CONDNS DB, 1/21 13:50:00, -20.00000, 6.49857E-004, 207.33814, 33.47654, 0.24489, -1338.48088
 Zone Sizing Information, TZ_PERIMETER_GROUND_ZN_2, Cooling, 19197.59737, 19197.59737, 1.42631, 1.42631, CHICAGO OHARE INTL AP ANN CLG .4% CONDNS DB=>MWB, 7/21 08:40:00, 26.86000, 1.49611E-002, 131.26219, 21.19342, 0.15503, -460.94991
 Zone Sizing Information, TZ_PERIMETER_GROUND_ZN_2, Heating, 6909.20631, 6909.20631, 0.30309, 0.30309, CHICAGO OHARE INTL AP ANN HTG 99.6% CONDNS DB, 1/21 13:50:00, -20.00000, 6.49857E-004, 131.26219, 21.19342, 0.15503, -847.35581
 Zone Sizing Information, TZ_PERIMETER_GROUND_ZN_3, Cooling, 13503.22036, 13503.22036, 0.92236, 0.92236, CHICAGO OHARE INTL AP ANN CLG .4% CONDNS DB=>MWB, 7/21 07:00:00, 23.74500, 1.49611E-002, 207.33814, 33.47654, 0.24489, -784.00372
 Zone Sizing Information, TZ_PERIMETER_GROUND_ZN_3, Heating, 10406.95394, 10406.95394, 0.45652, 0.45652, CHICAGO OHARE INTL AP ANN HTG 99.6% CONDNS DB, 1/21 13:50:00, -20.00000, 6.49857E-004, 207.33814, 33.47654, 0.24489, -1338.48088
 Zone Sizing Information, TZ_PERIMETER_GROUND_ZN_4, Cooling, 19647.99243, 19647.99243, 1.45977, 1.45977, CHICAGO OHARE INTL AP ANN CLG .4% CONDNS DB=>MWB, 7/21 16:40:00, 32.11000, 1.49611E-002, 131.25358, 21.19203, 0.15502, -460.91907
 Zone Sizing Information, TZ_PERIMETER_GROUND_ZN_4, Heating, 7041.17232, 7041.17232, 0.30887, 0.30887, CHICAGO OHARE INTL AP ANN HTG 99.6% CONDNS DB, 1/21 13:50:00, -20.00000, 6.49857E-004, 131.25358, 21.19203, 0.15502, -847.29200
 Zone Sizing Information, TZ_PERIMETER_MID_ZN_1, Cooling, 11652.91284, 11652.91284, 0.86544, 0.86544, CHICAGO OHARE INTL AP ANN CLG .4% CONDNS DB=>MWB, 7/21 13:00:00, 32.77500, 1.49611E-002, 207.33814, 11.15885, 8.95286E-002, -266.57379
 Zone Sizing Information, TZ_PERIMETER_MID_ZN_1, Heating, 10984.91996, 10984.91996, 0.47944, 0.47944, CHICAGO OHARE INTL AP ANN HTG 99.6% CONDNS DB, 1/21 08:00:00, -20.00000, 6.49857E-004, 207.33814, 11.15885, 8.95286E-002, -485.23256
 Zone Sizing Information, TZ_PERIMETER_MID_ZN_2, Cooling, 10766.67932, 10766.67932, 0.79961, 0.79961, CHICAGO OHARE INTL AP ANN CLG .4% CONDNS DB=>MWB, 7/21 08:20:00, 26.19500, 1.49611E-002, 131.26219, 7.06447, 5.66790E-002, -168.77901
 Zone Sizing Information, TZ_PERIMETER_MID_ZN_2, Heating, 7121.45234, 7121.45234, 0.31084, 0.31084, CHICAGO OHARE INTL AP ANN HTG 99.6% CONDNS DB, 1/21 08:00:00, -20.00000, 6.49857E-004, 131.26219, 7.06447, 5.66790E-002, -307.19244
 Zone Sizing Information, TZ_PERIMETER_MID_ZN_3, Cooling, 7947.79857, 7947.79857, 0.59027, 0.59027, CHICAGO OHARE INTL AP ANN CLG .4% CONDNS DB=>MWB, 7/21 14:20:00, 33.30000, 1.49611E-002, 207.33814, 11.15885, 8.95286E-002, -266.57239
 Zone Sizing Information, TZ_PERIMETER_MID_ZN_3, Heating, 10872.89205, 10872.89205, 0.47454, 0.47454, CHICAGO OHARE INTL AP ANN HTG 99.6% CONDNS DB, 1/21 08:00:00, -20.00000, 6.49857E-004, 207.33814, 11.15885, 8.95286E-002, -485.23280
 Zone Sizing Information, TZ_PERIMETER_MID_ZN_4, Cooling, 10840.27893, 10840.27893, 0.80509, 0.80509, CHICAGO OHARE INTL AP ANN CLG .4% CONDNS DB=>MWB, 7/21 16:50:00, 31.97000, 1.49611E-002, 131.25358, 7.06401, 5.66753E-002, -168.75636
 Zone Sizing Information, TZ_PERIMETER_MID_ZN_4, Heating, 7216.10506, 7216.10506, 0.31498, 0.31498, CHICAGO OHARE INTL AP ANN HTG 99.6% CONDNS DB, 1/21 08:00:00, -20.00000, 6.49857E-004, 131.25358, 7.06401, 5.66753E-002, -307.17151
 Zone Sizing Information, TZ_PERIMETER_TOP_ZN_1, Cooling, 11871.31637, 11871.31637, 0.88167, 0.88167, CHICAGO OHARE INTL AP ANN CLG .4% CONDNS DB=>MWB, 7/21 13:00:00, 32.77500, 1.49611E-002, 207.33814, 11.15885, 8.95286E-002, -266.57060
 Zone Sizing Information, TZ_PERIMETER_TOP_ZN_1, Heating, 13304.25898, 13304.25898, 0.58095, 0.58095, CHICAGO OHARE INTL AP ANN HTG 99.6% CONDNS DB, 1/21 08:00:00, -20.00000, 6.49857E-004, 207.33814, 11.15885, 8.95286E-002, -485.21324
 Zone Sizing Information, TZ_PERIMETER_TOP_ZN_2, Cooling, 10780.98744, 10780.98744, 0.80067, 0.80067, CHICAGO OHARE INTL AP ANN CLG .4% CONDNS DB=>MWB, 7/21 08:20:00, 26.19500, 1.49611E-002, 131.26219, 7.06447, 5.66790E-002, -168.77715
 Zone Sizing Information, TZ_PERIMETER_TOP_ZN_2, Heating, 8588.94276, 8588.94276, 0.37506, 0.37506, CHICAGO OHARE INTL AP ANN HTG 99.6% CONDNS DB, 1/21 08:00:00, -20.00000, 6.49857E-004, 131.26219, 7.06447, 5.66790E-002, -307.17974
 Zone Sizing Information, TZ_PERIMETER_TOP_ZN_3, Cooling, 8310.47599, 8310.47599, 0.61721, 0.61721, CHICAGO OHARE INTL AP ANN CLG .4% CONDNS DB=>MWB, 7/21 18:20:00, 30.25500, 1.49611E-002, 207.33814, 11.15885, 8.95286E-002, -266.56731
 Zone Sizing Information, TZ_PERIMETER_TOP_ZN_3, Heating, 13209.59376, 13209.59376, 0.57680, 0.57680, CHICAGO OHARE INTL AP ANN HTG 99.6% CONDNS DB, 1/21 08:00:00, -20.00000, 6.49857E-004, 207.33814, 11.15885, 8.95286E-002, -485.21350
 Zone Sizing Information, TZ_PERIMETER_TOP_ZN_4, Cooling, 11131.59794, 11131.59794, 0.82672, 0.82672, CHICAGO OHARE INTL AP ANN CLG .4% CONDNS DB=>MWB, 7/21 16:50:00, 31.97000, 1.49611E-002, 131.25358, 7.06401, 5.66753E-002, -168.75485
 Zone Sizing Information, TZ_PERIMETER_TOP_ZN_4, Heating, 8687.08743, 8687.08743, 0.37936, 0.37936, CHICAGO OHARE INTL AP ANN HTG 99.6% CONDNS DB, 1/21 08:00:00, -20.00000, 6.49857E-004, 131.25358, 7.06401, 5.66753E-002, -307.15862
! <System Sizing Information>, System Name, Load Type, Peak Load Kind, User Design Capacity, Calc Des Air Flow Rate [m3/s], User Des Air Flow Rate [m3/s], Design Day Name, Date/Time of Peak
 System Sizing Information, 15 ZONE DOAS, Cooling, Sensible, 45106.04, 14.91825, 2.15131, CHICAGO OHARE INTL AP ANN CLG .4% CONDNS DB=>MWB, 7/21 00:00:00
 System Sizing Information, 15 ZONE DOAS, Heating, Sensible, 104503.65, 7.67738, 2.15131, CHICAGO OHARE INTL AP ANN HTG 99.6% CONDNS DB, 1/21 08:00:00
 System Sizing Information, 5 ZONE DOAS, Cooling, Sensible, 41126.09, 6.86515, 1.96149, CHICAGO OHARE INTL AP ANN CLG .4% CONDNS DB=>MWB, 7/21 00:00:00
 System Sizing Information, 5 ZONE DOAS, Heating, Sensible, 95282.74, 2.68666, 1.96149, CHICAGO OHARE INTL AP ANN HTG 99.6% CONDNS DB, 1/21 13:50:00
! <Component Sizing Information>, Component Type, Component Name, Input Field Description, Value
 Component Sizing Information, AirTerminal:SingleDuct:ConstantVolume:NoReheat, TZ_CORE_BOTTOM AIR TERMINAL, Design Size Maximum Air Flow Rate [m3/s], 0.42469
 Component Sizing Information, ZoneHVAC:TerminalUnit:VariableRefrigerantFlow, TZ_CORE_BOTTOM VRF TERMINAL UNIT, Design Size Cooling Supply Air Flow Rate [m3/s], 3.58495
 Component Sizing Information, ZoneHVAC:TerminalUnit:VariableRefrigerantFlow, TZ_CORE_BOTTOM VRF TERMINAL UNIT, Design Size Heating Supply Air Flow Rate [m3/s], 3.58495
 Component Sizing Information, ZoneHVAC:TerminalUnit:VariableRefrigerantFlow, TZ_CORE_BOTTOM VRF TERMINAL UNIT, Design Size No Cooling Supply Air Flow Rate [m3/s], 3.58495
 Component Sizing Information, ZoneHVAC:TerminalUnit:VariableRefrigerantFlow, TZ_CORE_BOTTOM VRF TERMINAL UNIT, Design Size No Heating Supply Air Flow Rate [m3/s], 3.58495
 Component Sizing Information, Coil:Cooling:DX:VariableRefrigerantFlow, ZONE HVAC TERMINAL UNIT VARIABLE REFRIGERANT FLOW 1 COOLING COIL 5, Design Size Rated Air Flow Rate [m3/s], 3.58495
 Component Sizing Information, Coil:Cooling:DX:VariableRefrigerantFlow, ZONE HVAC TERMINAL UNIT VARIABLE REFRIGERANT FLOW 1 COOLING COIL 5, Design Size Gross Rated Total Cooling Capacity [W], 59398.23237
 Component Sizing Information, Coil:Cooling:DX:VariableRefrigerantFlow, ZONE HVAC TERMINAL UNIT VARIABLE REFRIGERANT FLOW 1 COOLING COIL 5, Design Size Gross Rated Sensible Heat Ratio, 0.80032
 Component Sizing Information, Coil:Heating:DX:VariableRefrigerantFlow, ZONE HVAC TERMINAL UNIT VARIABLE REFRIGERANT FLOW 1 HEATING COIL 5, Design Size Rated Air Flow Rate [m3/s], 3.58495
 Component Sizing Information, Coil:Heating:DX:VariableRefrigerantFlow, ZONE HVAC TERMINAL UNIT VARIABLE REFRIGERANT FLOW 1 HEATING COIL 5, Design Size Gross Rated Heating Capacity [W], 59398.23237
 Component Sizing Information, Fan:OnOff, TZ_CORE_BOTTOM VRF UNIT CYCLING FAN, Design Size Maximum Flow Rate [m3/s], 3.58495
 Component Sizing Information, AirTerminal:SingleDuct:ConstantVolume:NoReheat, TZ_CORE_GROUND AIR TERMINAL, Design Size Maximum Air Flow Rate [m3/s], 1.16166
 Component Sizing Information, ZoneHVAC:TerminalUnit:VariableRefrigerantFlow, TZ_CORE_GROUND VRF TERMINAL UNIT, Design Size Cooling Supply Air Flow Rate [m3/s], 3.31951
 Component Sizing Information, ZoneHVAC:TerminalUnit:VariableRefrigerantFlow, TZ_CORE_GROUND VRF TERMINAL UNIT, Design Size Heating Supply Air Flow Rate [m3/s], 3.31951
 Component Sizing Information, ZoneHVAC:TerminalUnit:VariableRefrigerantFlow, TZ_CORE_GROUND VRF TERMINAL UNIT, Design Size No Cooling Supply Air Flow Rate [m3/s], 3.31951
 Component Sizing Information, ZoneHVAC:TerminalUnit:VariableRefrigerantFlow, TZ_CORE_GROUND VRF TERMINAL UNIT, Design Size No Heating Supply Air Flow Rate [m3/s], 3.31951
 Component Sizing Information, Coil:Cooling:DX:VariableRefrigerantFlow, ZONE HVAC TERMINAL UNIT VARIABLE REFRIGERANT FLOW 1 COOLING COIL, Design Size Rated Air Flow Rate [m3/s], 3.31951
 Component Sizing Information, Coil:Cooling:DX:VariableRefrigerantFlow, ZONE HVAC TERMINAL UNIT VARIABLE REFRIGERANT FLOW 1 COOLING COIL, Design Size Gross Rated Total Cooling Capacity [W], 72217.25150
 Component Sizing Information, Coil:Cooling:DX:VariableRefrigerantFlow, ZONE HVAC TERMINAL UNIT VARIABLE REFRIGERANT FLOW 1 COOLING COIL, Design Size Gross Rated Sensible Heat Ratio, 0.74075
 Component Sizing Information, Coil:Heating:DX:VariableRefrigerantFlow, ZONE HVAC TERMINAL UNIT VARIABLE REFRIGERANT FLOW 1 HEATING COIL, Design Size Rated Air Flow Rate [m3/s], 3.31951
 Component Sizing Information, Coil:Heating:DX:VariableRefrigerantFlow, ZONE HVAC TERMINAL UNIT VARIABLE REFRIGERANT FLOW 1 HEATING COIL, Design Size Gross Rated Heating Capacity [W], 72217.25150
 Component Sizing Information, Fan:OnOff, TZ_CORE_GROUND VRF UNIT CYCLING FAN, Design Size Maximum Flow Rate [m3/s], 3.31951
 Component Sizing Information, AirTerminal:SingleDuct:ConstantVolume:NoReheat, TZ_CORE_MID AIR TERMINAL, Design Size Maximum Air Flow Rate [m3/s], 0.42469
 Component Sizing Information, ZoneHVAC:TerminalUnit:VariableRefrigerantFlow, TZ_CORE_MID VRF TERMINAL UNIT, Design Size Cooling Supply Air Flow Rate [m3/s], 2.15038
 Component Sizing Information, ZoneHVAC:TerminalUnit:VariableRefrigerantFlow, TZ_CORE_MID VRF TERMINAL UNIT, Design Size Heating Supply Air Flow Rate [m3/s], 2.15038
 Component Sizing Information, ZoneHVAC:TerminalUnit:VariableRefrigerantFlow, TZ_CORE_MID VRF TERMINAL UNIT, Design Size No Cooling Supply Air Flow Rate [m3/s], 2.15038
 Component Sizing Information, ZoneHVAC:TerminalUnit:VariableRefrigerantFlow, TZ_CORE_MID VRF TERMINAL UNIT, Design Size No Heating Supply Air Flow Rate [m3/s], 2.15038
 Component Sizing Information, Coil:Cooling:DX:VariableRefrigerantFlow, ZONE HVAC TERMINAL UNIT VARIABLE REFRIGERANT FLOW 1 COOLING COIL 6, Design Size Rated Air Flow Rate [m3/s], 2.15038
 Component Sizing Information, Coil:Cooling:DX:VariableRefrigerantFlow, ZONE HVAC TERMINAL UNIT VARIABLE REFRIGERANT FLOW 1 COOLING COIL 6, Design Size Gross Rated Total Cooling Capacity [W], 38062.09776
 Component Sizing Information, Coil:Cooling:DX:VariableRefrigerantFlow, ZONE HVAC TERMINAL UNIT VARIABLE REFRIGERANT FLOW 1 COOLING COIL 6, Design Size Gross Rated Sensible Heat Ratio, 0.80084
 Component Sizing Information, Coil:Heating:DX:VariableRefrigerantFlow, ZONE HVAC TERMINAL UNIT VARIABLE REFRIGERANT FLOW 1 HEATING COIL 6, Design Size Rated Air Flow Rate [m3/s], 2.15038
 Component Sizing Information, Coil:Heating:DX:VariableRefrigerantFlow, ZONE HVAC TERMINAL UNIT VARIABLE REFRIGERANT FLOW 1 HEATING COIL 6, Design Size Gross Rated Heating Capacity [W], 38062.09776
 Component Sizing Information, Fan:OnOff, TZ_CORE_MID VRF UNIT CYCLING FAN, Design Size Maximum Flow Rate [m3/s], 2.15038
 Component Sizing Information, AirTerminal:SingleDuct:ConstantVolume:NoReheat, TZ_CORE_TOP AIR TERMINAL, Design Size Maximum Air Flow Rate [m3/s], 0.42469
 Component Sizing Information, ZoneHVAC:TerminalUnit:VariableRefrigerantFlow, TZ_CORE_TOP VRF TERMINAL UNIT, Design Size Cooling Supply Air Flow Rate [m3/s], 2.16988
 Component Sizing Information, ZoneHVAC:TerminalUnit:VariableRefrigerantFlow, TZ_CORE_TOP VRF TERMINAL UNIT, Design Size Heating Supply Air Flow Rate [m3/s], 2.16988
 Component Sizing Information, ZoneHVAC:TerminalUnit:VariableRefrigerantFlow, TZ_CORE_TOP VRF TERMINAL UNIT, Design Size No Cooling Supply Air Flow Rate [m3/s], 2.16988
 Component Sizing Information, ZoneHVAC:TerminalUnit:VariableRefrigerantFlow, TZ_CORE_TOP VRF TERMINAL UNIT, Design Size No Heating Supply Air Flow Rate [m3/s], 2.16988
 Component Sizing Information, Coil:Cooling:DX:VariableRefrigerantFlow, ZONE HVAC TERMINAL UNIT VARIABLE REFRIGERANT FLOW 1 COOLING COIL 7, Design Size Rated Air Flow Rate [m3/s], 2.16988
 Component Sizing Information, Coil:Cooling:DX:VariableRefrigerantFlow, ZONE HVAC TERMINAL UNIT VARIABLE REFRIGERANT FLOW 1 COOLING COIL 7, Design Size Gross Rated Total Cooling Capacity [W], 38348.67054
 Component Sizing Information, Coil:Cooling:DX:VariableRefrigerantFlow, ZONE HVAC TERMINAL UNIT VARIABLE REFRIGERANT FLOW 1 COOLING COIL 7, Design Size Gross Rated Sensible Heat Ratio, 0.80036
 Component Sizing Information, Coil:Heating:DX:VariableRefrigerantFlow, ZONE HVAC TERMINAL UNIT VARIABLE REFRIGERANT FLOW 1 HEATING COIL 7, Design Size Rated Air Flow Rate [m3/s], 2.16988
 Component Sizing Information, Coil:Heating:DX:VariableRefrigerantFlow, ZONE HVAC TERMINAL UNIT VARIABLE REFRIGERANT FLOW 1 HEATING COIL 7, Design Size Gross Rated Heating Capacity [W], 38348.67054
 Component Sizing Information, Fan:OnOff, TZ_CORE_TOP VRF UNIT CYCLING FAN, Design Size Maximum Flow Rate [m3/s], 2.16988
 Component Sizing Information, AirTerminal:SingleDuct:ConstantVolume:NoReheat, TZ_PERIMETER_BOT_ZN_1 AIR TERMINAL, Design Size Maximum Air Flow Rate [m3/s], 8.95286E-002
 Component Sizing Information, ZoneHVAC:TerminalUnit:VariableRefrigerantFlow, TZ_PERIMETER_BOT_ZN_1 VRF TERMINAL UNIT, Design Size Cooling Supply Air Flow Rate [m3/s], 0.88852
 Component Sizing Information, ZoneHVAC:TerminalUnit:VariableRefrigerantFlow, TZ_PERIMETER_BOT_ZN_1 VRF TERMINAL UNIT, Design Size Heating Supply Air Flow Rate [m3/s], 0.88852
 Component Sizing Information, ZoneHVAC:TerminalUnit:VariableRefrigerantFlow, TZ_PERIMETER_BOT_ZN_1 VRF TERMINAL UNIT, Design Size No Cooling Supply Air Flow Rate [m3/s], 0.88852
 Component Sizing Information, ZoneHVAC:TerminalUnit:VariableRefrigerantFlow, TZ_PERIMETER_BOT_ZN_1 VRF TERMINAL UNIT, Design Size No Heating Supply Air Flow Rate [m3/s], 0.88852
 Component Sizing Information, Coil:Cooling:DX:VariableRefrigerantFlow, ZONE HVAC TERMINAL UNIT VARIABLE REFRIGERANT FLOW 1 COOLING COIL 8, Design Size Rated Air Flow Rate [m3/s], 0.88852
 Component Sizing Information, Coil:Cooling:DX:VariableRefrigerantFlow, ZONE HVAC TERMINAL UNIT VARIABLE REFRIGERANT FLOW 1 COOLING COIL 8, Design Size Gross Rated Total Cooling Capacity [W], 15097.36550
 Component Sizing Information, Coil:Cooling:DX:VariableRefrigerantFlow, ZONE HVAC TERMINAL UNIT VARIABLE REFRIGERANT FLOW 1 COOLING COIL 8, Design Size Gross Rated Sensible Heat Ratio, 0.80018
 Component Sizing Information, Coil:Heating:DX:VariableRefrigerantFlow, ZONE HVAC TERMINAL UNIT VARIABLE REFRIGERANT FLOW 1 HEATING COIL 8, Design Size Rated Air Flow Rate [m3/s], 0.88852
 Component Sizing Information, Coil:Heating:DX:VariableRefrigerantFlow, ZONE HVAC TERMINAL UNIT VARIABLE REFRIGERANT FLOW 1 HEATING COIL 8, Design Size Gross Rated Heating Capacity [W], 15097.36550
 Component Sizing Information, Fan:OnOff, TZ_PERIMETER_BOT_ZN_1 VRF UNIT CYCLING FAN, Design Size Maximum Flow Rate [m3/s], 0.88852
 Component Sizing Information, AirTerminal:SingleDuct:ConstantVolume:NoReheat, TZ_PERIMETER_BOT_ZN_2 AIR TERMINAL, Design Size Maximum Air Flow Rate [m3/s], 5.66790E-002
 Component Sizing Information, ZoneHVAC:TerminalUnit:VariableRefrigerantFlow, TZ_PERIMETER_BOT_ZN_2 VRF TERMINAL UNIT, Design Size Cooling Supply Air Flow Rate [m3/s], 0.81554
 Component Sizing Information, ZoneHVAC:TerminalUnit:VariableRefrigerantFlow, TZ_PERIMETER_BOT_ZN_2 VRF TERMINAL UNIT, Design Size Heating Supply Air Flow Rate [m3/s], 0.81554
 Component Sizing Information, ZoneHVAC:TerminalUnit:VariableRefrigerantFlow, TZ_PERIMETER_BOT_ZN_2 VRF TERMINAL UNIT, Design Size No Cooling Supply Air Flow Rate [m3/s], 0.81554
 Component Sizing Information, ZoneHVAC:TerminalUnit:VariableRefrigerantFlow, TZ_PERIMETER_BOT_ZN_2 VRF TERMINAL UNIT, Design Size No Heating Supply Air Flow Rate [m3/s], 0.81554
 Component Sizing Information, Coil:Cooling:DX:VariableRefrigerantFlow, ZONE HVAC TERMINAL UNIT VARIABLE REFRIGERANT FLOW 1 COOLING COIL 9, Design Size Rated Air Flow Rate [m3/s], 0.81554
 Component Sizing Information, Coil:Cooling:DX:VariableRefrigerantFlow, ZONE HVAC TERMINAL UNIT VARIABLE REFRIGERANT FLOW 1 COOLING COIL 9, Design Size Gross Rated Total Cooling Capacity [W], 13500.15757
 Component Sizing Information, Coil:Cooling:DX:VariableRefrigerantFlow, ZONE HVAC TERMINAL UNIT VARIABLE REFRIGERANT FLOW 1 COOLING COIL 9, Design Size Gross Rated Sensible Heat Ratio, 0.80066
 Component Sizing Information, Coil:Heating:DX:VariableRefrigerantFlow, ZONE HVAC TERMINAL UNIT VARIABLE REFRIGERANT FLOW 1 HEATING COIL 9, Design Size Rated Air Flow Rate [m3/s], 0.81554
 Component Sizing Information, Coil:Heating:DX:VariableRefrigerantFlow, ZONE HVAC TERMINAL UNIT VARIABLE REFRIGERANT FLOW 1 HEATING COIL 9, Design Size Gross Rated Heating Capacity [W], 13500.15757
 Component Sizing Information, Fan:OnOff, TZ_PERIMETER_BOT_ZN_2 VRF UNIT CYCLING FAN, Design Size Maximum Flow Rate [m3/s], 0.81554
 Component Sizing Information, AirTerminal:SingleDuct:ConstantVolume:NoReheat, TZ_PERIMETER_BOT_ZN_3 AIR TERMINAL, Design Size Maximum Air Flow Rate [m3/s], 8.95286E-002
 Component Sizing Information, ZoneHVAC:TerminalUnit:VariableRefrigerantFlow, TZ_PERIMETER_BOT_ZN_3 VRF TERMINAL UNIT, Design Size Cooling Supply Air Flow Rate [m3/s], 0.61000
 Component Sizing Information, ZoneHVAC:TerminalUnit:VariableRefrigerantFlow, TZ_PERIMETER_BOT_ZN_3 VRF TERMINAL UNIT, Design Size Heating Supply Air Flow Rate [m3/s], 0.61000
 Component Sizing Information, ZoneHVAC:TerminalUnit:VariableRefrigerantFlow, TZ_PERIMETER_BOT_ZN_3 VRF TERMINAL UNIT, Design Size No Cooling Supply Air Flow Rate [m3/s], 0.61000
 Component Sizing Information, ZoneHVAC:TerminalUnit:VariableRefrigerantFlow, TZ_PERIMETER_BOT_ZN_3 VRF TERMINAL UNIT, Design Size No Heating Supply Air Flow Rate [m3/s], 0.61000
 Component Sizing Information, Coil:Cooling:DX:VariableRefrigerantFlow, ZONE HVAC TERMINAL UNIT VARIABLE REFRIGERANT FLOW 1 COOLING COIL 10, Design Size Rated Air Flow Rate [m3/s], 0.61000
 Component Sizing Information, Coil:Cooling:DX:VariableRefrigerantFlow, ZONE HVAC TERMINAL UNIT VARIABLE REFRIGERANT FLOW 1 COOLING COIL 10, Design Size Gross Rated Total Cooling Capacity [W], 10853.94965
 Component Sizing Information, Coil:Cooling:DX:VariableRefrigerantFlow, ZONE HVAC TERMINAL UNIT VARIABLE REFRIGERANT FLOW 1 COOLING COIL 10, Design Size Gross Rated Sensible Heat Ratio, 0.80004
 Component Sizing Information, Coil:Heating:DX:VariableRefrigerantFlow, ZONE HVAC TERMINAL UNIT VARIABLE REFRIGERANT FLOW 1 HEATING COIL 10, Design Size Rated Air Flow Rate [m3/s], 0.61000
 Component Sizing Information, Coil:Heating:DX:VariableRefrigerantFlow, ZONE HVAC TERMINAL UNIT VARIABLE REFRIGERANT FLOW 1 HEATING COIL 10, Design Size Gross Rated Heating Capacity [W], 10853.94965
 Component Sizing Information, Fan:OnOff, TZ_PERIMETER_BOT_ZN_3 VRF UNIT CYCLING FAN, Design Size Maximum Flow Rate [m3/s], 0.61000
 Component Sizing Information, AirTerminal:SingleDuct:ConstantVolume:NoReheat, TZ_PERIMETER_BOT_ZN_4 AIR TERMINAL, Design Size Maximum Air Flow Rate [m3/s], 5.66753E-002
 Component Sizing Information, ZoneHVAC:TerminalUnit:VariableRefrigerantFlow, TZ_PERIMETER_BOT_ZN_4 VRF TERMINAL UNIT, Design Size Cooling Supply Air Flow Rate [m3/s], 0.82057
 Component Sizing Information, ZoneHVAC:TerminalUnit:VariableRefrigerantFlow, TZ_PERIMETER_BOT_ZN_4 VRF TERMINAL UNIT, Design Size Heating Supply Air Flow Rate [m3/s], 0.82057
 Component Sizing Information, ZoneHVAC:TerminalUnit:VariableRefrigerantFlow, TZ_PERIMETER_BOT_ZN_4 VRF TERMINAL UNIT, Design Size No Cooling Supply Air Flow Rate [m3/s], 0.82057
 Component Sizing Information, ZoneHVAC:TerminalUnit:VariableRefrigerantFlow, TZ_PERIMETER_BOT_ZN_4 VRF TERMINAL UNIT, Design Size No Heating Supply Air Flow Rate [m3/s], 0.82057
 Component Sizing Information, Coil:Cooling:DX:VariableRefrigerantFlow, ZONE HVAC TERMINAL UNIT VARIABLE REFRIGERANT FLOW 1 COOLING COIL 11, Design Size Rated Air Flow Rate [m3/s], 0.82057
 Component Sizing Information, Coil:Cooling:DX:VariableRefrigerantFlow, ZONE HVAC TERMINAL UNIT VARIABLE REFRIGERANT FLOW 1 COOLING COIL 11, Design Size Gross Rated Total Cooling Capacity [W], 13583.30337
 Component Sizing Information, Coil:Cooling:DX:VariableRefrigerantFlow, ZONE HVAC TERMINAL UNIT VARIABLE REFRIGERANT FLOW 1 COOLING COIL 11, Design Size Gross Rated Sensible Heat Ratio, 0.80066
 Component Sizing Information, Coil:Heating:DX:VariableRefrigerantFlow, ZONE HVAC TERMINAL UNIT VARIABLE REFRIGERANT FLOW 1 HEATING COIL 11, Design Size Rated Air Flow Rate [m3/s], 0.82057
 Component Sizing Information, Coil:Heating:DX:VariableRefrigerantFlow, ZONE HVAC TERMINAL UNIT VARIABLE REFRIGERANT FLOW 1 HEATING COIL 11, Design Size Gross Rated Heating Capacity [W], 13583.30337
 Component Sizing Information, Fan:OnOff, TZ_PERIMETER_BOT_ZN_4 VRF UNIT CYCLING FAN, Design Size Maximum Flow Rate [m3/s], 0.82057
 Component Sizing Information, AirTerminal:SingleDuct:ConstantVolume:NoReheat, TZ_PERIMETER_GROUND_ZN_1 AIR TERMINAL, Design Size Maximum Air Flow Rate [m3/s], 0.24489
 Component Sizing Information, ZoneHVAC:TerminalUnit:VariableRefrigerantFlow, TZ_PERIMETER_GROUND_ZN_1 VRF TERMINAL UNIT, Design Size Cooling Supply Air Flow Rate [m3/s], 1.42581
 Component Sizing Information, ZoneHVAC:TerminalUnit:VariableRefrigerantFlow, TZ_PERIMETER_GROUND_ZN_1 VRF TERMINAL UNIT, Design Size Heating Supply Air Flow Rate [m3/s], 1.42581
 Component Sizing Information, ZoneHVAC:TerminalUnit:VariableRefrigerantFlow, TZ_PERIMETER_GROUND_ZN_1 VRF TERMINAL UNIT, Design Size No Cooling Supply Air Flow Rate [m3/s], 1.42581
 Component Sizing Information, ZoneHVAC:TerminalUnit:VariableRefrigerantFlow, TZ_PERIMETER_GROUND_ZN_1 VRF TERMINAL UNIT, Design Size No Heating Supply Air Flow Rate [m3/s], 1.42581
 Component Sizing Information, Coil:Cooling:DX:VariableRefrigerantFlow, ZONE HVAC TERMINAL UNIT VARIABLE REFRIGERANT FLOW 1 COOLING COIL 1, Design Size Rated Air Flow Rate [m3/s], 1.42581
 Component Sizing Information, Coil:Cooling:DX:VariableRefrigerantFlow, ZONE HVAC TERMINAL UNIT VARIABLE REFRIGERANT FLOW 1 COOLING COIL 1, Design Size Gross Rated Total Cooling Capacity [W], 25878.72415
 Component Sizing Information, Coil:Cooling:DX:VariableRefrigerantFlow, ZONE HVAC TERMINAL UNIT VARIABLE REFRIGERANT FLOW 1 COOLING COIL 1, Design Size Gross Rated Sensible Heat Ratio, 0.80031
 Component Sizing Information, Coil:Heating:DX:VariableRefrigerantFlow, ZONE HVAC TERMINAL UNIT VARIABLE REFRIGERANT FLOW 1 HEATING COIL 1, Design Size Rated Air Flow Rate [m3/s], 1.42581
 Component Sizing Information, Coil:Heating:DX:VariableRefrigerantFlow, ZONE HVAC TERMINAL UNIT VARIABLE REFRIGERANT FLOW 1 HEATING COIL 1, Design Size Gross Rated Heating Capacity [W], 25878.72415
 Component Sizing Information, Fan:OnOff, TZ_PERIMETER_GROUND_ZN_1 VRF UNIT CYCLING FAN, Design Size Maximum Flow Rate [m3/s], 1.42581
 Component Sizing Information, AirTerminal:SingleDuct:ConstantVolume:NoReheat, TZ_PERIMETER_GROUND_ZN_2 AIR TERMINAL, Design Size Maximum Air Flow Rate [m3/s], 0.15503
 Component Sizing Information, ZoneHVAC:TerminalUnit:VariableRefrigerantFlow, TZ_PERIMETER_GROUND_ZN_2 VRF TERMINAL UNIT, Design Size Cooling Supply Air Flow Rate [m3/s], 1.42631
 Component Sizing Information, ZoneHVAC:TerminalUnit:VariableRefrigerantFlow, TZ_PERIMETER_GROUND_ZN_2 VRF TERMINAL UNIT, Design Size Heating Supply Air Flow Rate [m3/s], 1.42631
 Component Sizing Information, ZoneHVAC:TerminalUnit:VariableRefrigerantFlow, TZ_PERIMETER_GROUND_ZN_2 VRF TERMINAL UNIT, Design Size No Cooling Supply Air Flow Rate [m3/s], 1.42631
 Component Sizing Information, ZoneHVAC:TerminalUnit:VariableRefrigerantFlow, TZ_PERIMETER_GROUND_ZN_2 VRF TERMINAL UNIT, Design Size No Heating Supply Air Flow Rate [m3/s], 1.42631
 Component Sizing Information, Coil:Cooling:DX:VariableRefrigerantFlow, ZONE HVAC TERMINAL UNIT VARIABLE REFRIGERANT FLOW 1 COOLING COIL 2, Design Size Rated Air Flow Rate [m3/s], 1.42631
 Component Sizing Information, Coil:Cooling:DX:VariableRefrigerantFlow, ZONE HVAC TERMINAL UNIT VARIABLE REFRIGERANT FLOW 1 COOLING COIL 2, Design Size Gross Rated Total Cooling Capacity [W], 23704.66329
 Component Sizing Information, Coil:Cooling:DX:VariableRefrigerantFlow, ZONE HVAC TERMINAL UNIT VARIABLE REFRIGERANT FLOW 1 COOLING COIL 2, Design Size Gross Rated Sensible Heat Ratio, 0.80019
 Component Sizing Information, Coil:Heating:DX:VariableRefrigerantFlow, ZONE HVAC TERMINAL UNIT VARIABLE REFRIGERANT FLOW 1 HEATING COIL 2, Design Size Rated Air Flow Rate [m3/s], 1.42631
 Component Sizing Information, Coil:Heating:DX:VariableRefrigerantFlow, ZONE HVAC TERMINAL UNIT VARIABLE REFRIGERANT FLOW 1 HEATING COIL 2, Design Size Gross Rated Heating Capacity [W], 23704.66329
 Component Sizing Information, Fan:OnOff, TZ_PERIMETER_GROUND_ZN_2 VRF UNIT CYCLING FAN, Design Size Maximum Flow Rate [m3/s], 1.42631
 Component Sizing Information, AirTerminal:SingleDuct:ConstantVolume:NoReheat, TZ_PERIMETER_GROUND_ZN_3 AIR TERMINAL, Design Size Maximum Air Flow Rate [m3/s], 0.24489
 Component Sizing Information, ZoneHVAC:TerminalUnit:VariableRefrigerantFlow, TZ_PERIMETER_GROUND_ZN_3 VRF TERMINAL UNIT, Design Size Cooling Supply Air Flow Rate [m3/s], 0.92236
 Component Sizing Information, ZoneHVAC:TerminalUnit:VariableRefrigerantFlow, TZ_PERIMETER_GROUND_ZN_3 VRF TERMINAL UNIT, Design Size Heating Supply Air Flow Rate [m3/s], 0.92236
 Component Sizing Information, ZoneHVAC:TerminalUnit:VariableRefrigerantFlow, TZ_PERIMETER_GROUND_ZN_3 VRF TERMINAL UNIT, Design Size No Cooling Supply Air Flow Rate [m3/s], 0.92236
 Component Sizing Information, ZoneHVAC:TerminalUnit:VariableRefrigerantFlow, TZ_PERIMETER_GROUND_ZN_3 VRF TERMINAL UNIT, Design Size No Heating Supply Air Flow Rate [m3/s], 0.92236
 Component Sizing Information, Coil:Cooling:DX:VariableRefrigerantFlow, ZONE HVAC TERMINAL UNIT VARIABLE REFRIGERANT FLOW 1 COOLING COIL 3, Design Size Rated Air Flow Rate [m3/s], 0.92236
 Component Sizing Information, Coil:Cooling:DX:VariableRefrigerantFlow, ZONE HVAC TERMINAL UNIT VARIABLE REFRIGERANT FLOW 1 COOLING COIL 3, Design Size Gross Rated Total Cooling Capacity [W], 18524.99460
 Component Sizing Information, Coil:Cooling:DX:VariableRefrigerantFlow, ZONE HVAC TERMINAL UNIT VARIABLE REFRIGERANT FLOW 1 COOLING COIL 3, Design Size Gross Rated Sensible Heat Ratio, 0.77102
[...]
 Component Sizing Information, AirLoopHVAC, 15 ZONE DOAS, Design Supply Air Flow Rate [m3/s], 2.15131
 Component Sizing Information, AirLoopHVAC, 5 ZONE DOAS, Design Supply Air Flow Rate [m3/s], 1.96149
 Component Sizing Information, Fan:ConstantVolume, DOAS EXHAUST FAN 1, Design Size Maximum Flow Rate [m3/s], 2.15131
!<Controller:MechanicalVentilation>,Name,Availability Schedule Name,Demand Controlled Ventilation {Yes/No},System Outdoor Air Method,Zone Maximum Outdoor Air Fraction,Number of Zones,Zone Name,DSOA Name,DSZAD Name
 Controller:MechanicalVentilation,15 ZONE DOAS MECHANICAL VENTILATION CONTROLLER,ALWAYS ON DISCRETE,No,ZoneSum,1.00,15,TZ_CORE_BOTTOM,OFFICE WHOLEBUILDING - MD OFFICE VENTILATION,TZ_CORE_BOTTOM DESIGN SPEC ZONE AIR DIST,TZ_CORE_MID,OFFICE WHOLEBUILDING - MD OFFICE VENTILATION,TZ_CORE_MID DESIGN SPEC ZONE AIR DIST,TZ_CORE_TOP,OFFICE WHOLEBUILDING - MD OFFICE VENTILATION,TZ_CORE_TOP DESIGN SPEC ZONE AIR DIST,TZ_PERIMETER_BOT_ZN_1,OFFICE WHOLEBUILDING - MD OFFICE VENTILATION,TZ_PERIMETER_BOT_ZN_1 DESIGN SPEC ZONE AIR DIST,TZ_PERIMETER_BOT_ZN_2,OFFICE WHOLEBUILDING - MD OFFICE VENTILATION,TZ_PERIMETER_BOT_ZN_2 DESIGN SPEC ZONE AIR DIST,TZ_PERIMETER_BOT_ZN_3,OFFICE WHOLEBUILDING - MD OFFICE VENTILATION,TZ_PERIMETER_BOT_ZN_3 DESIGN SPEC ZONE AIR DIST,TZ_PERIMETER_BOT_ZN_4,OFFICE WHOLEBUILDING - MD OFFICE VENTILATION,TZ_PERIMETER_BOT_ZN_4 DESIGN SPEC ZONE AIR DIST,TZ_PERIMETER_MID_ZN_1,OFFICE WHOLEBUILDING - MD OFFICE VENTILATION,TZ_PERIMETER_MID_ZN_1 DESIGN SPEC ZONE AIR DIST,TZ_PERIMETER_MID_ZN_2,OFFICE WHOLEBUILDING - MD OFFICE VENTILATION,TZ_PERIMETER_MID_ZN_2 DESIGN SPEC ZONE AIR DIST,TZ_PERIMETER_MID_ZN_3,OFFICE WHOLEBUILDING - MD OFFICE VENTILATION,TZ_PERIMETER_MID_ZN_3 DESIGN SPEC ZONE AIR DIST,TZ_PERIMETER_MID_ZN_4,OFFICE WHOLEBUILDING - MD OFFICE VENTILATION,TZ_PERIMETER_MID_ZN_4 DESIGN SPEC ZONE AIR DIST,TZ_PERIMETER_TOP_ZN_1,OFFICE WHOLEBUILDING - MD OFFICE VENTILATION,TZ_PERIMETER_TOP_ZN_1 DESIGN SPEC ZONE AIR DIST,TZ_PERIMETER_TOP_ZN_2,OFFICE WHOLEBUILDING - MD OFFICE VENTILATION,TZ_PERIMETER_TOP_ZN_2 DESIGN SPEC ZONE AIR DIST,TZ_PERIMETER_TOP_ZN_3,OFFICE WHOLEBUILDING - MD OFFICE VENTILATION,TZ_PERIMETER_TOP_ZN_3 DESIGN SPEC ZONE AIR DIST,TZ_PERIMETER_TOP_ZN_4,OFFICE WHOLEBUILDING - MD OFFICE VENTILATION,TZ_PERIMETER_TOP_ZN_4 DESIGN SPEC ZONE AIR DIST
 Controller:MechanicalVentilation,5 ZONE DOAS MECHANICAL VENTILATION CONTROLLER,ALWAYS ON DISCRETE,No,ZoneSum,1.00,5,TZ_CORE_GROUND,90.1-2010 - RETAIL - RETAIL VENTILATION,TZ_CORE_GROUND DESIGN SPEC ZONE AIR DIST,TZ_PERIMETER_GROUND_ZN_1,90.1-2010 - RETAIL - RETAIL VENTILATION,TZ_PERIMETER_GROUND_ZN_1 DESIGN SPEC ZONE AIR DIST,TZ_PERIMETER_GROUND_ZN_2,90.1-2010 - RETAIL - RETAIL VENTILATION,TZ_PERIMETER_GROUND_ZN_2 DESIGN SPEC ZONE AIR DIST,TZ_PERIMETER_GROUND_ZN_3,90.1-2010 - RETAIL - RETAIL VENTILATION,TZ_PERIMETER_GROUND_ZN_3 DESIGN SPEC ZONE AIR DIST,TZ_PERIMETER_GROUND_ZN_4,90.1-2010 - RETAIL - RETAIL VENTILATION,TZ_PERIMETER_GROUND_ZN_4 DESIGN SPEC ZONE AIR DIST
 Component Sizing Information, Controller:OutdoorAir, 15 ZONE DOAS OUTDOOR AIR CONTROLLER, Maximum Outdoor Air Flow Rate [m3/s], 2.15131
 Component Sizing Information, Controller:OutdoorAir, 15 ZONE DOAS OUTDOOR AIR CONTROLLER, Minimum Outdoor Air Flow Rate [m3/s], 2.15131
 Component Sizing Information, HeatExchanger:AirToAir:SensibleAndLatent, 15 ZONE DOAS HEAT EXCHANGER, Design Size Nominal Supply Air Flow Rate [m3/s], 2.15131
 Component Sizing Information, Coil:Cooling:DX:TwoSpeed, 15 ZONE DOAS 2SPD DX CLG COIL, Design Size High Speed Rated Air Flow Rate [m3/s], 2.15131
 Component Sizing Information, Coil:Cooling:DX:TwoSpeed, 15 ZONE DOAS 2SPD DX CLG COIL, Design Size High Speed Gross Rated Total Cooling Capacity [W], 53422.09758
 Component Sizing Information, Coil:Cooling:DX:TwoSpeed, 15 ZONE DOAS 2SPD DX CLG COIL, Design Size High Speed Rated Sensible Heat Ratio, 0.69808
 Component Sizing Information, Coil:Cooling:DX:TwoSpeed, 15 ZONE DOAS 2SPD DX CLG COIL, Design Size Low Speed Rated Air Flow Rate [m3/s], 0.71703
 Component Sizing Information, Coil:Cooling:DX:TwoSpeed, 15 ZONE DOAS 2SPD DX CLG COIL, Design Size Low Speed Gross Rated Total Cooling Capacity [W], 17805.58512
 Component Sizing Information, Coil:Cooling:DX:TwoSpeed, 15 ZONE DOAS 2SPD DX CLG COIL, User-Specified Low Speed Gross Rated Sensible Heat Ratio, 0.69000
 Component Sizing Information, Coil:Heating:DX:SingleSpeed, 15 ZONE DOAS HTG COIL, Design Size Rated Air Flow Rate [m3/s], 2.15131
 Component Sizing Information, Coil:Heating:DX:SingleSpeed, 15 ZONE DOAS HTG COIL, Design Size Gross Rated Heating Capacity [W], 53422.09758
! <DX Heating Coil Standard Rating Information>, Component Type, Component Name, High Temperature Heating (net) Rating Capacity {W}, Low Temperature Heating (net) Rating Capacity {W}, HSPF {Btu/W-h}, Region Number
 DX Heating Coil Standard Rating Information, Coil:Heating:DX:SingleSpeed, 15 ZONE DOAS HTG COIL, 55150.5, 30346.9, 7.37, 4
 Component Sizing Information, Coil:Heating:Electric, 15 ZONE DOAS BACKUP HTG COIL, Design Size Nominal Capacity [W], 104503.65040
 Component Sizing Information, Fan:ConstantVolume, DOAS SUPPLY FAN 1, Design Size Maximum Flow Rate [m3/s], 2.15131
 Component Sizing Information, Fan:ConstantVolume, DOAS EXHAUST FAN, Design Size Maximum Flow Rate [m3/s], 1.96149
 Component Sizing Information, Controller:OutdoorAir, 5 ZONE DOAS OUTDOOR AIR CONTROLLER, Maximum Outdoor Air Flow Rate [m3/s], 1.96149
 Component Sizing Information, Controller:OutdoorAir, 5 ZONE DOAS OUTDOOR AIR CONTROLLER, Minimum Outdoor Air Flow Rate [m3/s], 1.96149
 Component Sizing Information, HeatExchanger:AirToAir:SensibleAndLatent, 5 ZONE DOAS HEAT EXCHANGER, Design Size Nominal Supply Air Flow Rate [m3/s], 1.96149
 Component Sizing Information, Coil:Cooling:DX:TwoSpeed, 5 ZONE DOAS 2SPD DX CLG COIL, Design Size High Speed Rated Air Flow Rate [m3/s], 1.96149
 Component Sizing Information, Coil:Cooling:DX:TwoSpeed, 5 ZONE DOAS 2SPD DX CLG COIL, Design Size High Speed Gross Rated Total Cooling Capacity [W], 48708.38309
 Component Sizing Information, Coil:Cooling:DX:TwoSpeed, 5 ZONE DOAS 2SPD DX CLG COIL, Design Size High Speed Rated Sensible Heat Ratio, 0.69808
 Component Sizing Information, Coil:Cooling:DX:TwoSpeed, 5 ZONE DOAS 2SPD DX CLG COIL, Design Size Low Speed Rated Air Flow Rate [m3/s], 0.65376
 Component Sizing Information, Coil:Cooling:DX:TwoSpeed, 5 ZONE DOAS 2SPD DX CLG COIL, Design Size Low Speed Gross Rated Total Cooling Capacity [W], 16234.50408
 Component Sizing Information, Coil:Cooling:DX:TwoSpeed, 5 ZONE DOAS 2SPD DX CLG COIL, User-Specified Low Speed Gross Rated Sensible Heat Ratio, 0.69000
 Component Sizing Information, Coil:Heating:DX:SingleSpeed, 5 ZONE DOAS HTG COIL, Design Size Rated Air Flow Rate [m3/s], 1.96149
 Component Sizing Information, Coil:Heating:DX:SingleSpeed, 5 ZONE DOAS HTG COIL, Design Size Gross Rated Heating Capacity [W], 48708.38309
 DX Heating Coil Standard Rating Information, Coil:Heating:DX:SingleSpeed, 5 ZONE DOAS HTG COIL, 50284.3, 27669.2, 7.39, 4
 Component Sizing Information, Coil:Heating:Electric, 5 ZONE DOAS BACKUP HTG COIL, Design Size Nominal Capacity [W], 95282.74007
 Component Sizing Information, Fan:ConstantVolume, DOAS SUPPLY FAN, Design Size Maximum Flow Rate [m3/s], 1.96149
Water Heater Information,WaterHeater:Mixed,100GAL NATURAL GAS WATER HEATER - 100KBTU/HR 0.802 THERM EFF,0.3785,29307.1,1.016,0.3043
 Component Sizing Information, PlantLoop, MAIN SERVICE WATER LOOP, Maximum Loop Flow Rate [m3/s], 5.36265E-005
 Component Sizing Information, PlantLoop, MAIN SERVICE WATER LOOP, Plant Loop Volume [m3], 6.43518E-003
 Component Sizing Information, Pump:ConstantSpeed, SERVICE WATER LOOP PUMP, Design Flow Rate [m3/s], 5.36265E-005
 Component Sizing Information, Pump:ConstantSpeed, SERVICE WATER LOOP PUMP, Design Power Consumption [W], 2.93580
 Component Sizing Information, WaterHeater:Mixed, 100GAL NATURAL GAS WATER HEATER - 100KBTU/HR 0.802 THERM EFF, Use Side Design Flow Rate [m3/s], 5.36265E-005
! <Environment>,Environment Name,Environment Type, Start Date, End Date, Start DayOfWeek, Duration {#days}, Source:Start DayOfWeek,  Use Daylight Saving, Use Holidays, Apply Weekend Holiday Rule,  Use Rain Values, Use Snow Values
! <Environment:Special Days>, Special Day Name, Special Day Type, Source, Start Date, Duration {#days}
! <Environment:Daylight Saving>, Daylight Saving Indicator, Source, Start Date, End Date
! <Environment:WarmupDays>, NumberofWarmupDays
Environment,CHICAGO OHARE INTL AP ANN CLG .4% CONDNS DB=>MWB,SizingPeriod:DesignDay,07/21,07/21,SummerDesignDay,1,N/A,N/A,N/A,N/A,N/A,N/A
Environment:Daylight Saving,No,SizingPeriod:DesignDay
! <Environment:Design Day Data>, Max Dry-Bulb Temp {C}, Temp Range {dC}, Temp Range Ind Type, Hum Ind Value at Max Temp, Hum Ind Type,Pressure {Pa}, Wind Direction {deg CW from N}, Wind Speed {m/s}, Clearness, Rain, Snow
! <Environment:Design Day Misc>,DayOfYear,ASHRAE A Coeff,ASHRAE B Coeff,ASHRAE C Coeff,Solar Constant-Annual Variation,Eq of Time {minutes}, Solar Declination Angle {deg}, Solar Model
Environment:Design Day Data,33.30,10.50,DefaultMultipliers,98934,230,5.2,0.00,No,No
Environment:Design Day Misc,202,1084.4,0.2082,0.1365,1.0,-6.23,20.6,ASHRAETau
Environment:WarmupDays,  6
! <Tabular Report>,Style,Unit Conversion
Tabular Report,HTML,None
! <Warmup Convergence Information>,Zone Name,Environment Type/Name,Average Warmup Temperature Difference {deltaC},Std Dev Warmup Temperature Difference {deltaC},Max Temperature Pass/Fail Convergence,Min Temperature Pass/Fail Convergence,Average Warmup Load Difference {W},Std Dev Warmup Load Difference {W},Heating Load Pass/Fail Convergence,Cooling Load Pass/Fail Convergence
 Warmup Convergence Information,TZ_CORE_BOTTOM,SizingPeriod: CHICAGO OHARE INTL AP ANN CLG .4% CONDNS DB=>MWB,3.7588109789E-002,0.1993125769,Pass,Pass,2.0259114610E-002,0.1128200219,Pass,Pass
 Warmup Convergence Information,TZ_CORE_GROUND,SizingPeriod: CHICAGO OHARE INTL AP ANN CLG .4% CONDNS DB=>MWB,6.3384820068E-002,0.3097560917,Pass,Pass,2.9494670000E-002,0.1494606856,Pass,Pass
 Warmup Convergence Information,TZ_CORE_MID,SizingPeriod: CHICAGO OHARE INTL AP ANN CLG .4% CONDNS DB=>MWB,3.7560698254E-002,0.1563738620,Pass,Pass,4.2173743334E-002,0.3201245436,Pass,Pass
 Warmup Convergence Information,TZ_CORE_TOP,SizingPeriod: CHICAGO OHARE INTL AP ANN CLG .4% CONDNS DB=>MWB,3.7566528109E-002,0.1614830268,Pass,Pass,4.6065139032E-002,0.3434994015,Pass,Pass
 Warmup Convergence Information,TZ_FIRSTFLOOR_PLENUM,SizingPeriod: CHICAGO OHARE INTL AP ANN CLG .4% CONDNS DB=>MWB,6.0569380198E-003,4.0179312132E-003,Pass,Pass,0.0000000000,0.0000000000,Pass,Pass
 Warmup Convergence Information,TZ_GROUNDFLOOR_PLENUM,SizingPeriod: CHICAGO OHARE INTL AP ANN CLG .4% CONDNS DB=>MWB,4.9653613829E-003,4.5952915392E-003,Pass,Pass,0.0000000000,0.0000000000,Pass,Pass
 Warmup Convergence Information,TZ_MIDFLOOR_PLENUM,SizingPeriod: CHICAGO OHARE INTL AP ANN CLG .4% CONDNS DB=>MWB,6.9222768311E-003,4.9561664270E-003,Pass,Pass,0.0000000000,0.0000000000,Pass,Pass
 Warmup Convergence Information,TZ_PERIMETER_BOT_ZN_1,SizingPeriod: CHICAGO OHARE INTL AP ANN CLG .4% CONDNS DB=>MWB,3.7657516512E-002,0.1752080169,Pass,Pass,5.7376134380E-002,0.3891253568,Pass,Pass
 Warmup Convergence Information,TZ_PERIMETER_BOT_ZN_2,SizingPeriod: CHICAGO OHARE INTL AP ANN CLG .4% CONDNS DB=>MWB,3.7683406018E-002,0.1688785886,Pass,Pass,5.9313041161E-002,0.3978552770,Pass,Pass
 Warmup Convergence Information,TZ_PERIMETER_BOT_ZN_3,SizingPeriod: CHICAGO OHARE INTL AP ANN CLG .4% CONDNS DB=>MWB,3.7577804349E-002,0.1663796518,Pass,Pass,4.9258228884E-002,0.3763182327,Pass,Pass
 Warmup Convergence Information,TZ_PERIMETER_BOT_ZN_4,SizingPeriod: CHICAGO OHARE INTL AP ANN CLG .4% CONDNS DB=>MWB,3.7709459515E-002,0.1859129539,Pass,Pass,6.5955457876E-002,0.4474091975,Pass,Pass
 Warmup Convergence Information,TZ_PERIMETER_GROUND_ZN_1,SizingPeriod: CHICAGO OHARE INTL AP ANN CLG .4% CONDNS DB=>MWB,6.3144877582E-002,0.3216909999,Pass,Pass,2.9948875257E-002,0.1362641783,Pass,Pass
 Warmup Convergence Information,TZ_PERIMETER_GROUND_ZN_2,SizingPeriod: CHICAGO OHARE INTL AP ANN CLG .4% CONDNS DB=>MWB,9.0291993540E-002,0.4118928988,Pass,Pass,3.2339356924E-002,0.1326104478,Pass,Pass
 Warmup Convergence Information,TZ_PERIMETER_GROUND_ZN_3,SizingPeriod: CHICAGO OHARE INTL AP ANN CLG .4% CONDNS DB=>MWB,7.4123550843E-002,0.3357863822,Pass,Pass,3.0150086701E-002,0.1423440560,Pass,Pass
 Warmup Convergence Information,TZ_PERIMETER_GROUND_ZN_4,SizingPeriod: CHICAGO OHARE INTL AP ANN CLG .4% CONDNS DB=>MWB,6.9452229810E-002,0.3670754210,Pass,Pass,3.9027099162E-002,0.1632905789,Pass,Pass
 Warmup Convergence Information,TZ_PERIMETER_MID_ZN_1,SizingPeriod: CHICAGO OHARE INTL AP ANN CLG .4% CONDNS DB=>MWB,3.7754652093E-002,0.1730274703,Pass,Pass,5.4776917422E-002,0.3774875164,Pass,Pass
 Warmup Convergence Information,TZ_PERIMETER_MID_ZN_2,SizingPeriod: CHICAGO OHARE INTL AP ANN CLG .4% CONDNS DB=>MWB,3.7723058892E-002,0.1661234695,Pass,Pass,5.7548438993E-002,0.3874318184,Pass,Pass
 Warmup Convergence Information,TZ_PERIMETER_MID_ZN_3,SizingPeriod: CHICAGO OHARE INTL AP ANN CLG .4% CONDNS DB=>MWB,3.7665085667E-002,0.1642850592,Pass,Pass,4.7292777448E-002,0.3643855621,Pass,Pass
 Warmup Convergence Information,TZ_PERIMETER_MID_ZN_4,SizingPeriod: CHICAGO OHARE INTL AP ANN CLG .4% CONDNS DB=>MWB,3.7698860372E-002,0.1841868166,Pass,Pass,6.6269443932E-002,0.4365104703,Pass,Pass
 Warmup Convergence Information,TZ_PERIMETER_TOP_ZN_1,SizingPeriod: CHICAGO OHARE INTL AP ANN CLG .4% CONDNS DB=>MWB,3.7683584279E-002,0.1777164967,Pass,Pass,5.8821017964E-002,0.4008159841,Pass,Pass
 Warmup Convergence Information,TZ_PERIMETER_TOP_ZN_2,SizingPeriod: CHICAGO OHARE INTL AP ANN CLG .4% CONDNS DB=>MWB,3.7687605826E-002,0.1708908479,Pass,Pass,6.0668889506E-002,0.4106286382,Pass,Pass
 Warmup Convergence Information,TZ_PERIMETER_TOP_ZN_3,SizingPeriod: CHICAGO OHARE INTL AP ANN CLG .4% CONDNS DB=>MWB,3.7619970215E-002,0.1695233431,Pass,Pass,5.2240563075E-002,0.3896443205,Pass,Pass
 Warmup Convergence Information,TZ_PERIMETER_TOP_ZN_4,SizingPeriod: CHICAGO OHARE INTL AP ANN CLG .4% CONDNS DB=>MWB,3.7720425965E-002,0.1886259899,Pass,Pass,6.7458396122E-002,0.4587279142,Pass,Pass
 Warmup Convergence Information,TZ_TOPFLOOR_PLENUM,SizingPeriod: CHICAGO OHARE INTL AP ANN CLG .4% CONDNS DB=>MWB,5.1643428468E-002,3.7254908959E-002,Pass,Pass,0.0000000000,0.0000000000,Pass,Pass
Environment,CHICAGO OHARE INTL AP ANN HTG 99.6% CONDNS DB,SizingPeriod:DesignDay,01/21,01/21,WinterDesignDay,1,N/A,N/A,N/A,N/A,N/A,N/A
Environment:Daylight Saving,No,SizingPeriod:DesignDay
Environment:Design Day Data,-20.00,0.00,DefaultMultipliers,98934,270,4.9,0.00,No,No
Environment:Design Day Misc, 21,1229.0,0.1415,5.7310E-002,1.0,-11.15,-20.1,ASHRAEClearSky
Environment:WarmupDays,  7
 Warmup Convergence Information,TZ_CORE_BOTTOM,SizingPeriod: CHICAGO OHARE INTL AP ANN HTG 99.6% CONDNS DB,2.5764132524E-002,0.1047528989,Pass,Pass,0.1103295746,1.0246422173,Pass,Pass
 Warmup Convergence Information,TZ_CORE_GROUND,SizingPeriod: CHICAGO OHARE INTL AP ANN HTG 99.6% CONDNS DB,2.2372011623E-004,1.3426234812E-004,Pass,Pass,1.6752783720E-004,9.8820040424E-005,Pass,Pass
 Warmup Convergence Information,TZ_CORE_MID,SizingPeriod: CHICAGO OHARE INTL AP ANN HTG 99.6% CONDNS DB,3.2832838432E-002,0.1225670531,Pass,Pass,0.1184178993,1.1019103247,Pass,Pass
 Warmup Convergence Information,TZ_CORE_TOP,SizingPeriod: CHICAGO OHARE INTL AP ANN HTG 99.6% CONDNS DB,5.4220343756E-002,0.1760559598,Pass,Pass,0.1248095060,1.2574464936,Pass,Pass
 Warmup Convergence Information,TZ_FIRSTFLOOR_PLENUM,SizingPeriod: CHICAGO OHARE INTL AP ANN HTG 99.6% CONDNS DB,6.2347041686E-003,2.6088093745E-003,Pass,Pass,0.0000000000,0.0000000000,Pass,Pass
 Warmup Convergence Information,TZ_GROUNDFLOOR_PLENUM,SizingPeriod: CHICAGO OHARE INTL AP ANN HTG 99.6% CONDNS DB,2.8862920823E-003,1.2582092176E-003,Pass,Pass,0.0000000000,0.0000000000,Pass,Pass
 Warmup Convergence Information,TZ_MIDFLOOR_PLENUM,SizingPeriod: CHICAGO OHARE INTL AP ANN HTG 99.6% CONDNS DB,6.9199819949E-003,3.0081885699E-003,Pass,Pass,0.0000000000,0.0000000000,Pass,Pass
 Warmup Convergence Information,TZ_PERIMETER_BOT_ZN_1,SizingPeriod: CHICAGO OHARE INTL AP ANN HTG 99.6% CONDNS DB,7.5329227962E-002,0.3017959120,Pass,Pass,0.1414389697,1.3780437278,Pass,Pass
 Warmup Convergence Information,TZ_PERIMETER_BOT_ZN_2,SizingPeriod: CHICAGO OHARE INTL AP ANN HTG 99.6% CONDNS DB,7.5000000069E-002,0.3274678256,Pass,Pass,0.1470504476,1.4040739286,Pass,Pass
 Warmup Convergence Information,TZ_PERIMETER_BOT_ZN_3,SizingPeriod: CHICAGO OHARE INTL AP ANN HTG 99.6% CONDNS DB,5.9982327459E-002,0.2258245675,Pass,Pass,9.3420523735E-002,0.8743869377,Pass,Pass
 Warmup Convergence Information,TZ_PERIMETER_BOT_ZN_4,SizingPeriod: CHICAGO OHARE INTL AP ANN HTG 99.6% CONDNS DB,7.4999999999E-002,0.3296205098,Pass,Pass,0.1470964071,1.4080228871,Pass,Pass
 Warmup Convergence Information,TZ_PERIMETER_GROUND_ZN_1,SizingPeriod: CHICAGO OHARE INTL AP ANN HTG 99.6% CONDNS DB,5.1048585791E-007,1.4656606874E-006,Pass,Pass,4.0711043711E-005,2.2052021914E-005,Pass,Pass
 Warmup Convergence Information,TZ_PERIMETER_GROUND_ZN_2,SizingPeriod: CHICAGO OHARE INTL AP ANN HTG 99.6% CONDNS DB,4.7374858456E-007,1.3577975975E-006,Pass,Pass,3.8795575791E-005,2.1000514541E-005,Pass,Pass
 Warmup Convergence Information,TZ_PERIMETER_GROUND_ZN_3,SizingPeriod: CHICAGO OHARE INTL AP ANN HTG 99.6% CONDNS DB,5.1266984097E-007,1.4740818584E-006,Pass,Pass,4.0711078752E-005,2.2052313170E-005,Pass,Pass
 Warmup Convergence Information,TZ_PERIMETER_GROUND_ZN_4,SizingPeriod: CHICAGO OHARE INTL AP ANN HTG 99.6% CONDNS DB,4.7268100991E-007,1.3548507463E-006,Pass,Pass,3.8054788213E-005,2.0597846059E-005,Pass,Pass
 Warmup Convergence Information,TZ_PERIMETER_MID_ZN_1,SizingPeriod: CHICAGO OHARE INTL AP ANN HTG 99.6% CONDNS DB,7.5241746417E-002,0.2904140250,Pass,Pass,0.1217770887,1.2002469245,Pass,Pass
 Warmup Convergence Information,TZ_PERIMETER_MID_ZN_2,SizingPeriod: CHICAGO OHARE INTL AP ANN HTG 99.6% CONDNS DB,7.5000000000E-002,0.3399978848,Pass,Pass,0.1478785266,1.4371185879,Pass,Pass
 Warmup Convergence Information,TZ_PERIMETER_MID_ZN_3,SizingPeriod: CHICAGO OHARE INTL AP ANN HTG 99.6% CONDNS DB,4.9131243704E-002,0.1880909632,Pass,Pass,3.1794374939E-002,0.2272491541,Pass,Pass
 Warmup Convergence Information,TZ_PERIMETER_MID_ZN_4,SizingPeriod: CHICAGO OHARE INTL AP ANN HTG 99.6% CONDNS DB,7.5000000000E-002,0.3423360358,Pass,Pass,0.1494751671,1.4406809025,Pass,Pass
 Warmup Convergence Information,TZ_PERIMETER_TOP_ZN_1,SizingPeriod: CHICAGO OHARE INTL AP ANN HTG 99.6% CONDNS DB,5.3803649530E-002,0.2204357826,Pass,Pass,1.8560812162E-002,0.1217331843,Pass,Pass
 Warmup Convergence Information,TZ_PERIMETER_TOP_ZN_2,SizingPeriod: CHICAGO OHARE INTL AP ANN HTG 99.6% CONDNS DB,7.6255731000E-002,0.3508235823,Pass,Pass,6.8792384193E-002,0.5485820956,Pass,Pass
 Warmup Convergence Information,TZ_PERIMETER_TOP_ZN_3,SizingPeriod: CHICAGO OHARE INTL AP ANN HTG 99.6% CONDNS DB,2.7089837964E-002,9.9501935534E-002,Pass,Pass,7.1770019016E-003,4.3308526001E-002,Pass,Pass
 Warmup Convergence Information,TZ_PERIMETER_TOP_ZN_4,SizingPeriod: CHICAGO OHARE INTL AP ANN HTG 99.6% CONDNS DB,7.5735694097E-002,0.3566714515,Pass,Pass,6.7681689286E-002,0.5330982361,Pass,Pass
 Warmup Convergence Information,TZ_TOPFLOOR_PLENUM,SizingPeriod: CHICAGO OHARE INTL AP ANN HTG 99.6% CONDNS DB,1.2035191860E-002,5.5385040410E-003,Pass,Pass,0.0000000000,0.0000000000,Pass,Pass
! <Program Control Information:Threads/Parallel Sims>, Threading Supported,Maximum Number of Threads, Env Set Threads (OMP_NUM_THREADS), EP Env Set Threads (EP_OMP_NUM_THREADS), IDF Set Threads, Number of Threads Used (Interior Radiant Exchange), Number Nominal Surfaces, Number Parallel Sims
Program Control:Threads/Parallel Sims, No,1, N/A, N/A, N/A, N/A, N/A, N/A
End of Data
