{
  "completed_at": "20180213T191839Z",
  "completed_status": "Success",
  "created_at": "2018-02-13 12:11:14 -0700",
  "current_step": 6,
  "description": "Autogenerated 0",
  "eplusout_err": "Program Version,EnergyPlus, Version 8.8.0-7c3bbe4830, YMD=2018.02.13 12:12,IDD_Version 8.8.0\n   ************* Beginning Zone Sizing Calculations\n   ** Warning ** ProcessScheduleInput: Schedule:Day:Interval=\"0.05 FRACTION DEFAULT\", Blank Schedule Type Limits Name input -- will not be validated.\n   ** Warning ** ProcessScheduleInput: Schedule:Day:Interval=\"0.2 FRACTION DEFAULT\", Blank Schedule Type Limits Name input -- will not be validated.\n   ** Warning ** ProcessScheduleInput: Schedule:Day:Interval=\"12 ZONE VAV 1 OCC SCH DEFAULT\", Blank Schedule Type Limits Name input -- will not be validated.\n   ** Warning ** ProcessScheduleInput: Schedule:Day:Interval=\"12 ZONE VAV 1 OCC SCH FRIDAY\", Blank Schedule Type Limits Name input -- will not be validated.\n   ** Warning ** ProcessScheduleInput: Schedule:Day:Interval=\"12 ZONE VAV 1 OCC SCH MONDAY\", Blank Schedule Type Limits Name input -- will not be validated.\n   ** Warning ** ProcessScheduleInput: Schedule:Day:Interval=\"12 ZONE VAV 1 OCC SCH SATURDAY\", Blank Schedule Type Limits Name input -- will not be validated.\n   ** Warning ** ProcessScheduleInput: Schedule:Day:Interval=\"12 ZONE VAV 1 OCC SCH SUMMER DESIGN DAY\", Blank Schedule Type Limits Name input -- will not be validated.\n   ** Warning ** ProcessScheduleInput: Schedule:Day:Interval=\"12 ZONE VAV 1 OCC SCH SUNDAY\", Blank Schedule Type Limits Name input -- will not be validated.\n   ** Warning ** ProcessScheduleInput: Schedule:Day:Interval=\"12 ZONE VAV 1 OCC SCH THURSDAY\", Blank Schedule Type Limits Name input -- will not be validated.\n   ** Warning ** ProcessScheduleInput: Schedule:Day:Interval=\"12 ZONE VAV 1 OCC SCH TUESDAY\", Blank Schedule Type Limits Name input -- will not be validated.\n   ** Warning ** ProcessScheduleInput: Schedule:Day:Interval=\"12 ZONE VAV 1 OCC SCH WEDNESDAY\", Blank Schedule Type Limits Name input -- will not be validated.\n   ** Warning ** ProcessScheduleInput: Schedule:Day:Interval=\"12 ZONE VAV 1 OCC SCH WINTER DESIGN DAY\", Blank Schedule Type Limits Name input -- will not be validated.\n   ** Warning ** ProcessScheduleInput: Schedule:Day:Interval=\"12 ZONE VAV OCC SCH DEFAULT\", Blank Schedule Type Limits Name input -- will not be validated.\n   ** Warning ** ProcessScheduleInput: Schedule:Day:Interval=\"12 ZONE VAV OCC SCH FRIDAY\", Blank Schedule Type Limits Name input -- will not be validated.\n   ** Warning ** ProcessScheduleInput: Schedule:Day:Interval=\"12 ZONE VAV OCC SCH MONDAY\", Blank Schedule Type Limits Name input -- will not be validated.\n   ** Warning ** ProcessScheduleInput: Schedule:Day:Interval=\"12 ZONE VAV OCC SCH SATURDAY\", Blank Schedule Type Limits Name input -- will not be validated.\n   ** Warning ** ProcessScheduleInput: Schedule:Day:Interval=\"12 ZONE VAV OCC SCH SUMMER DESIGN DAY\", Blank Schedule Type Limits Name input -- will not be validated.\n   ** Warning ** ProcessScheduleInput: Schedule:Day:Interval=\"12 ZONE VAV OCC SCH SUNDAY\", Blank Schedule Type Limits Name input -- will not be validated.\n   ** Warning ** ProcessScheduleInput: Schedule:Day:Interval=\"12 ZONE VAV OCC SCH THURSDAY\", Blank Schedule Type Limits Name input -- will not be validated.\n   ** Warning ** ProcessScheduleInput: Schedule:Day:Interval=\"12 ZONE VAV OCC SCH TUESDAY\", Blank Schedule Type Limits Name input -- will not be validated.\n   ** Warning ** ProcessScheduleInput: Schedule:Day:Interval=\"12 ZONE VAV OCC SCH WEDNESDAY\", Blank Schedule Type Limits Name input -- will not be validated.\n   ** Warning ** ProcessScheduleInput: Schedule:Day:Interval=\"12 ZONE VAV OCC SCH WINTER DESIGN DAY\", Blank Schedule Type Limits Name input -- will not be validated.\n   ** Warning ** ProcessScheduleInput: Schedule:Day:Interval=\"27 ZONE VAV OCC SCH DEFAULT\", Blank Schedule Type Limits Name input -- will not be validated.\n   ** Warning ** ProcessScheduleInput: Schedule:Day:Interval=\"27 ZONE VAV OCC SCH FRIDAY\", Blank Schedule Type Limits Name input -- will not be validated.\n   ** Warning ** ProcessScheduleInput: Schedule:Day:Interval=\"27 ZONE VAV OCC SCH MONDAY\", Blank Schedule Type Limits Name input -- will not be validated.\n   ** Warning ** ProcessScheduleInput: Schedule:Day:Interval=\"27 ZONE VAV OCC SCH SATURDAY\", Blank Schedule Type Limits Name input -- will not be validated.\n   ** Warning ** ProcessScheduleInput: Schedule:Day:Interval=\"27 ZONE VAV OCC SCH SUMMER DESIGN DAY\", Blank Schedule Type Limits Name input -- will not be validated.\n   ** Warning ** ProcessScheduleInput: Schedule:Day:Interval=\"27 ZONE VAV OCC SCH SUNDAY\", Blank Schedule Type Limits Name input -- will not be validated.\n   ** Warning ** ProcessScheduleInput: Schedule:Day:Interval=\"27 ZONE VAV OCC SCH THURSDAY\", Blank Schedule Type Limits Name input -- will not be validated.\n   ** Warning ** ProcessScheduleInput: Schedule:Day:Interval=\"27 ZONE VAV OCC SCH TUESDAY\", Blank Schedule Type Limits Name input -- will not be validated.\n   ** Warning ** ProcessScheduleInput: Schedule:Day:Interval=\"27 ZONE VAV OCC SCH WEDNESDAY\", Blank Schedule Type Limits Name input -- will not be validated.\n   ** Warning ** ProcessScheduleInput: Schedule:Day:Interval=\"27 ZONE VAV OCC SCH WINTER DESIGN DAY\", Blank Schedule Type Limits Name input -- will not be validated.\n   ** Warning ** ProcessScheduleInput: Schedule:Day:Interval=\"60.0 C DEFAULT\", Blank Schedule Type Limits Name input -- will not be validated.\n   ** Warning ** ProcessScheduleInput: Schedule:Day:Interval=\"9 ZONE VAV 1 OCC SCH DEFAULT\", Blank Schedule Type Limits Name input -- will not be validated.\n   ** Warning ** ProcessScheduleInput: Schedule:Day:Interval=\"9 ZONE VAV 1 OCC SCH FRIDAY\", Blank Schedule Type Limits Name input -- will not be validated.\n   ** Warning ** ProcessScheduleInput: Schedule:Day:Interval=\"9 ZONE VAV 1 OCC SCH MONDAY\", Blank Schedule Type Limits Name input -- will not be validated.\n   ** Warning ** ProcessScheduleInput: Schedule:Day:Interval=\"9 ZONE VAV 1 OCC SCH SATURDAY\", Blank Schedule Type Limits Name input -- will not be validated.\n   ** Warning ** ProcessScheduleInput: Schedule:Day:Interval=\"9 ZONE VAV 1 OCC SCH SUMMER DESIGN DAY\", Blank Schedule Type Limits Name input -- will not be validated.\n   ** Warning ** ProcessScheduleInput: Schedule:Day:Interval=\"9 ZONE VAV 1 OCC SCH SUNDAY\", Blank Schedule Type Limits Name input -- will not be validated.\n   ** Warning ** ProcessScheduleInput: Schedule:Day:Interval=\"9 ZONE VAV 1 OCC SCH THURSDAY\", Blank Schedule Type Limits Name input -- will not be validated.\n   ** Warning ** ProcessScheduleInput: Schedule:Day:Interval=\"9 ZONE VAV 1 OCC SCH TUESDAY\", Blank Schedule Type Limits Name input -- will not be validated.\n   ** Warning ** ProcessScheduleInput: Schedule:Day:Interval=\"9 ZONE VAV 1 OCC SCH WEDNESDAY\", Blank Schedule Type Limits Name input -- will not be validated.\n   ** Warning ** ProcessScheduleInput: Schedule:Day:Interval=\"9 ZONE VAV 1 OCC SCH WINTER DESIGN DAY\", Blank Schedule Type Limits Name input -- will not be validated.\n   ** Warning ** ProcessScheduleInput: Schedule:Day:Interval=\"9 ZONE VAV OCC SCH DEFAULT\", Blank Schedule Type Limits Name input -- will not be validated.\n   ** Warning ** ProcessScheduleInput: Schedule:Day:Interval=\"9 ZONE VAV OCC SCH FRIDAY\", Blank Schedule Type Limits Name input -- will not be validated.\n   ** Warning ** ProcessScheduleInput: Schedule:Day:Interval=\"9 ZONE VAV OCC SCH MONDAY\", Blank Schedule Type Limits Name input -- will not be validated.\n   ** Warning ** ProcessScheduleInput: Schedule:Day:Interval=\"9 ZONE VAV OCC SCH SATURDAY\", Blank Schedule Type Limits Name input -- will not be validated.\n   ** Warning ** ProcessScheduleInput: Schedule:Day:Interval=\"9 ZONE VAV OCC SCH SUMMER DESIGN DAY\", Blank Schedule Type Limits Name input -- will not be validated.\n   ** Warning ** ProcessScheduleInput: Schedule:Day:Interval=\"9 ZONE VAV OCC SCH SUNDAY\", Blank Schedule Type Limits Name input -- will not be validated.\n   ** Warning ** ProcessScheduleInput: Schedule:Day:Interval=\"9 ZONE VAV OCC SCH THURSDAY\", Blank Schedule Type Limits Name input -- will not be validated.\n   ** Warning ** ProcessScheduleInput: Schedule:Day:Interval=\"9 ZONE VAV OCC SCH TUESDAY\", Blank Schedule Type Limits Name input -- will not be validated.\n   ** Warning ** ProcessScheduleInput: Schedule:Day:Interval=\"9 ZONE VAV OCC SCH WEDNESDAY\", Blank Schedule Type Limits Name input -- will not be validated.\n   ** Warning ** ProcessScheduleInput: Schedule:Day:Interval=\"9 ZONE VAV OCC SCH WINTER DESIGN DAY\", Blank Schedule Type Limits Name input -- will not be validated.\n   ** Warning ** ProcessScheduleInput: Schedule:Year=\"0.05 FRACTION\", Blank Schedule Type Limits Name input -- will not be validated.\n   ** Warning ** ProcessScheduleInput: Schedule:Year=\"0.2 FRACTION\", Blank Schedule Type Limits Name input -- will not be validated.\n   ** Warning ** ProcessScheduleInput: Schedule:Year=\"12 ZONE VAV 1 OCC SCH\", Blank Schedule Type Limits Name input -- will not be validated.\n   ** Warning ** ProcessScheduleInput: Schedule:Year=\"12 ZONE VAV OCC SCH\", Blank Schedule Type Limits Name input -- will not be validated.\n   ** Warning ** ProcessScheduleInput: Schedule:Year=\"27 ZONE VAV OCC SCH\", Blank Schedule Type Limits Name input -- will not be validated.\n   ** Warning ** ProcessScheduleInput: Schedule:Year=\"60.0 C\", Blank Schedule Type Limits Name input -- will not be validated.\n   ** Warning ** ProcessScheduleInput: Schedule:Year=\"9 ZONE VAV 1 OCC SCH\", Blank Schedule Type Limits Name input -- will not be validated.\n   ** Warning ** ProcessScheduleInput: Schedule:Year=\"9 ZONE VAV OCC SCH\", Blank Schedule Type Limits Name input -- will not be validated.\n   ** Warning ** ProcessScheduleInput: Schedule:Constant=\"ALWAYS OFF DISCRETE\", Blank Schedule Type Limits Name input -- will not be validated.\n   ** Warning ** ProcessScheduleInput: Schedule:Constant=\"ALWAYS ON CONTINUOUS\", Blank Schedule Type Limits Name input -- will not be validated.\n   ** Warning ** GetHTSurfaceData: Surfaces with interface to Ground found but no \"Ground Temperatures\" were input.\n   **   ~~~   ** Found first in surface=SURFACE 37\n   **   ~~~   ** Defaults, constant throughout the year of (18.0) will be used.\n   ** Warning ** CheckUsedConstructions: There are 7 nominally unused constructions in input.\n   **   ~~~   ** For explicit details on each unused construction, use Output:Diagnostics,DisplayExtraWarnings;\n   ** Warning ** GetSimpleAirModelInputs: ZoneInfiltration:DesignFlowRate=\"ZONE LARGEHOTEL BANQUET A  - STORY B1 LARGEHOTEL BANQUET INFILTRATION\", Design Flow Rate Calculation Method specifies Flow per Exterior Surface Area, but Exterior Surface Area = 0.  0 Infiltration will result.\n   ** Warning ** GetSimpleAirModelInputs: ZoneInfiltration:DesignFlowRate=\"ZONE LARGEHOTEL BANQUET B  - STORY B1 LARGEHOTEL BANQUET INFILTRATION\", Design Flow Rate Calculation Method specifies Flow per Exterior Surface Area, but Exterior Surface Area = 0.  0 Infiltration will result.\n   ** Warning ** GetSimpleAirModelInputs: ZoneInfiltration:DesignFlowRate=\"ZONE LARGEHOTEL BANQUET B  - STORY GROUND LARGEHOTEL BANQUET INFILTRATION\", Design Flow Rate Calculation Method specifies Flow per Exterior Surface Area, but Exterior Surface Area = 0.  0 Infiltration will result.\n   ** Warning ** GetSimpleAirModelInputs: ZoneInfiltration:DesignFlowRate=\"ZONE LARGEHOTEL BANQUET C  - STORY B1 LARGEHOTEL BANQUET INFILTRATION\", Design Flow Rate Calculation Method specifies Flow per Exterior Surface Area, but Exterior Surface Area = 0.  0 Infiltration will result.\n   ** Warning ** GetSimpleAirModelInputs: ZoneInfiltration:DesignFlowRate=\"ZONE LARGEHOTEL CAFE A  - STORY B1 LARGEHOTEL CAFE INFILTRATION\", Design Flow Rate Calculation Method specifies Flow per Exterior Surface Area, but Exterior Surface Area = 0.  0 Infiltration will result.\n   ** Warning ** GetSimpleAirModelInputs: ZoneInfiltration:DesignFlowRate=\"ZONE LARGEHOTEL CAFE A END_A - STORY B1 LARGEHOTEL CAFE INFILTRATION\", Design Flow Rate Calculation Method specifies Flow per Exterior Surface Area, but Exterior Surface Area = 0.  0 Infiltration will result.\n   ** Warning ** GetSimpleAirModelInputs: ZoneInfiltration:DesignFlowRate=\"ZONE LARGEHOTEL CAFE B  - STORY B1 LARGEHOTEL CAFE INFILTRATION\", Design Flow Rate Calculation Method specifies Flow per Exterior Surface Area, but Exterior Surface Area = 0.  0 Infiltration will result.\n   ** Warning ** GetSimpleAirModelInputs: ZoneInfiltration:DesignFlowRate=\"ZONE LARGEHOTEL CAFE B END_A - STORY B1 LARGEHOTEL CAFE INFILTRATION\", Design Flow Rate Calculation Method specifies Flow per Exterior Surface Area, but Exterior Surface Area = 0.  0 Infiltration will result.\n   ** Warning ** GetSimpleAirModelInputs: ZoneInfiltration:DesignFlowRate=\"ZONE LARGEHOTEL CAFE C  - STORY B1 LARGEHOTEL CAFE INFILTRATION\", Design Flow Rate Calculation Method specifies Flow per Exterior Surface Area, but Exterior Surface Area = 0.  0 Infiltration will result.\n   ** Warning ** GetSimpleAirModelInputs: ZoneInfiltration:DesignFlowRate=\"ZONE LARGEHOTEL CAFE C END_A - STORY B1 LARGEHOTEL CAFE INFILTRATION\", Design Flow Rate Calculation Method specifies Flow per Exterior Surface Area, but Exterior Surface Area = 0.  0 Infiltration will result.\n   ** Warning ** GetSimpleAirModelInputs: ZoneInfiltration:DesignFlowRate=\"ZONE LARGEHOTEL CORRIDOR B  - STORY MID LARGEHOTEL CORRIDOR INFILTRATION\", Design Flow Rate Calculation Method specifies Flow per Exterior Surface Area, but Exterior Surface Area = 0.  0 Infiltration will result.\n   ** Warning ** GetSimpleAirModelInputs: ZoneInfiltration:DesignFlowRate=\"ZONE LARGEHOTEL GUESTROOM B  - STORY MID2 LARGEHOTEL GUESTROOM INFILTRATION\", Design Flow Rate Calculation Method specifies Flow per Exterior Surface Area, but Exterior Surface Area = 0.  0 Infiltration will result.\n   ** Warning ** GetSimpleAirModelInputs: ZoneInfiltration:DesignFlowRate=\"ZONE LARGEHOTEL KITCHEN A  - STORY B1 LARGEHOTEL KITCHEN INFILTRATION\", Design Flow Rate Calculation Method specifies Flow per Exterior Surface Area, but Exterior Surface Area = 0.  0 Infiltration will result.\n   ** Warning ** GetSimpleAirModelInputs: ZoneInfiltration:DesignFlowRate=\"ZONE LARGEHOTEL KITCHEN B  - STORY B1 LARGEHOTEL KITCHEN INFILTRATION\", Design Flow Rate Calculation Method specifies Flow per Exterior Surface Area, but Exterior Surface Area = 0.  0 Infiltration will result.\n   ** Warning ** GetSimpleAirModelInputs: ZoneInfiltration:DesignFlowRate=\"ZONE LARGEHOTEL KITCHEN C  - STORY B1 LARGEHOTEL KITCHEN INFILTRATION\", Design Flow Rate Calculation Method specifies Flow per Exterior Surface Area, but Exterior Surface Area = 0.  0 Infiltration will result.\n   ** Warning ** GetSimpleAirModelInputs: ZoneInfiltration:DesignFlowRate=\"ZONE LARGEHOTEL LAUNDRY A  - STORY B1 LARGEHOTEL LAUNDRY INFILTRATION\", Design Flow Rate Calculation Method specifies Flow per Exterior Surface Area, but Exterior Surface Area = 0.  0 Infiltration will result.\n   ** Warning ** GetSimpleAirModelInputs: ZoneInfiltration:DesignFlowRate=\"ZONE LARGEHOTEL LAUNDRY B  - STORY B1 LARGEHOTEL LAUNDRY INFILTRATION\", Design Flow Rate Calculation Method specifies Flow per Exterior Surface Area, but Exterior Surface Area = 0.  0 Infiltration will result.\n   ** Warning ** GetSimpleAirModelInputs: ZoneInfiltration:DesignFlowRate=\"ZONE LARGEHOTEL LAUNDRY C  - STORY B1 LARGEHOTEL LAUNDRY INFILTRATION\", Design Flow Rate Calculation Method specifies Flow per Exterior Surface Area, but Exterior Surface Area = 0.  0 Infiltration will result.\n   ** Warning ** GetSimpleAirModelInputs: ZoneInfiltration:DesignFlowRate=\"ZONE LARGEHOTEL LOBBY B  - STORY GROUND LARGEHOTEL LOBBY INFILTRATION\", Design Flow Rate Calculation Method specifies Flow per Exterior Surface Area, but Exterior Surface Area = 0.  0 Infiltration will result.\n   ** Warning ** GetSimpleAirModelInputs: ZoneInfiltration:DesignFlowRate=\"ZONE LARGEHOTEL LOBBY B  - STORY MID LARGEHOTEL LOBBY INFILTRATION\", Design Flow Rate Calculation Method specifies Flow per Exterior Surface Area, but Exterior Surface Area = 0.  0 Infiltration will result.\n   ** Warning ** GetSimpleAirModelInputs: ZoneInfiltration:DesignFlowRate=\"ZONE LARGEHOTEL LOBBY B END_B - STORY GROUND LARGEHOTEL LOBBY INFILTRATION\", Design Flow Rate Calculation Method specifies Flow per Exterior Surface Area, but Exterior Surface Area = 0.  0 Infiltration will result.\n   ** Warning ** GetSimpleAirModelInputs: ZoneInfiltration:DesignFlowRate=\"ZONE LARGEHOTEL LOBBY B END_B - STORY MID LARGEHOTEL LOBBY INFILTRATION\", Design Flow Rate Calculation Method specifies Flow per Exterior Surface Area, but Exterior Surface Area = 0.  0 Infiltration will result.\n   ** Warning ** GetSimpleAirModelInputs: ZoneInfiltration:DesignFlowRate=\"ZONE LARGEHOTEL MECHANICAL A  - STORY B1 LARGEHOTEL MECHANICAL INFILTRATION\", Design Flow Rate Calculation Method specifies Flow per Exterior Surface Area, but Exterior Surface Area = 0.  0 Infiltration will result.\n   ** Warning ** GetSimpleAirModelInputs: ZoneInfiltration:DesignFlowRate=\"ZONE LARGEHOTEL MECHANICAL A END_B - STORY B1 LARGEHOTEL MECHANICAL INFILTRATION\", Design Flow Rate Calculation Method specifies Flow per Exterior Surface Area, but Exterior Surface Area = 0.  0 Infiltration will result.\n   ** Warning ** GetSimpleAirModelInputs: ZoneInfiltration:DesignFlowRate=\"ZONE LARGEHOTEL MECHANICAL B  - STORY B1 LARGEHOTEL MECHANICAL INFILTRATION\", Design Flow Rate Calculation Method specifies Flow per Exterior Surface Area, but Exterior Surface Area = 0.  0 Infiltration will result.\n   ** Warning ** GetSimpleAirModelInputs: ZoneInfiltration:DesignFlowRate=\"ZONE LARGEHOTEL MECHANICAL B END_B - STORY B1 LARGEHOTEL MECHANICAL INFILTRATION\", Design Flow Rate Calculation Method specifies Flow per Exterior Surface Area, but Exterior Surface Area = 0.  0 Infiltration will result.\n   ** Warning ** GetSimpleAirModelInputs: ZoneInfiltration:DesignFlowRate=\"ZONE LARGEHOTEL MECHANICAL C  - STORY B1 LARGEHOTEL MECHANICAL INFILTRATION\", Design Flow Rate Calculation Method specifies Flow per Exterior Surface Area, but Exterior Surface Area = 0.  0 Infiltration will result.\n   ** Warning ** GetSimpleAirModelInputs: ZoneInfiltration:DesignFlowRate=\"ZONE LARGEHOTEL MECHANICAL C END_B - STORY B1 LARGEHOTEL MECHANICAL INFILTRATION\", Design Flow Rate Calculation Method specifies Flow per Exterior Surface Area, but Exterior Surface Area = 0.  0 Infiltration will result.\n   ** Warning ** GetSimpleAirModelInputs: ZoneInfiltration:DesignFlowRate=\"ZONE LARGEHOTEL RETAIL A  - STORY B1 LARGEHOTEL RETAIL INFILTRATION\", Design Flow Rate Calculation Method specifies Flow per Exterior Surface Area, but Exterior Surface Area = 0.  0 Infiltration will result.\n   ** Warning ** GetSimpleAirModelInputs: ZoneInfiltration:DesignFlowRate=\"ZONE LARGEHOTEL RETAIL B  - STORY B1 LARGEHOTEL RETAIL INFILTRATION\", Design Flow Rate Calculation Method specifies Flow per Exterior Surface Area, but Exterior Surface Area = 0.  0 Infiltration will result.\n   ** Warning ** GetSimpleAirModelInputs: ZoneInfiltration:DesignFlowRate=\"ZONE LARGEHOTEL RETAIL C  - STORY B1 LARGEHOTEL RETAIL INFILTRATION\", Design Flow Rate Calculation Method specifies Flow per Exterior Surface Area, but Exterior Surface Area = 0.  0 Infiltration will result.\n   ** Warning ** GetSimpleAirModelInputs: ZoneInfiltration:DesignFlowRate=\"ZONE LARGEHOTEL STORAGE A  - STORY B1 LARGEHOTEL STORAGE INFILTRATION\", Design Flow Rate Calculation Method specifies Flow per Exterior Surface Area, but Exterior Surface Area = 0.  0 Infiltration will result.\n   ** Warning ** GetSimpleAirModelInputs: ZoneInfiltration:DesignFlowRate=\"ZONE LARGEHOTEL STORAGE B  - STORY B1 LARGEHOTEL STORAGE INFILTRATION\", Design Flow Rate Calculation Method specifies Flow per Exterior Surface Area, but Exterior Surface Area = 0.  0 Infiltration will result.\n   ** Warning ** GetSimpleAirModelInputs: ZoneInfiltration:DesignFlowRate=\"ZONE LARGEHOTEL STORAGE C  - STORY B1 LARGEHOTEL STORAGE INFILTRATION\", Design Flow Rate Calculation Method specifies Flow per Exterior Surface Area, but Exterior Surface Area = 0.  0 Infiltration will result.\n   ** Warning ** Calculated design cooling load for zone=ZONE LARGEHOTEL MECHANICAL A  - STORY B1 is zero.\n   **   ~~~   ** Check Sizing:Zone and ZoneControl:Thermostat inputs.\n   ** Warning ** Calculated design cooling load for zone=ZONE LARGEHOTEL MECHANICAL A END_B - STORY B1 is zero.\n   **   ~~~   ** Check Sizing:Zone and ZoneControl:Thermostat inputs.\n   ** Warning ** Calculated design cooling load for zone=ZONE LARGEHOTEL MECHANICAL B END_B - STORY B1 is zero.\n   **   ~~~   ** Check Sizing:Zone and ZoneControl:Thermostat inputs.\n   ** Warning ** Calculated design cooling load for zone=ZONE LARGEHOTEL MECHANICAL C  - STORY B1 is zero.\n   **   ~~~   ** Check Sizing:Zone and ZoneControl:Thermostat inputs.\n   ** Warning ** Calculated design cooling load for zone=ZONE LARGEHOTEL MECHANICAL C END_B - STORY B1 is zero.\n   **   ~~~   ** Check Sizing:Zone and ZoneControl:Thermostat inputs.\n   ** Warning ** Calculated design heating load for zone=ZONE LARGEHOTEL RETAIL B  - STORY B1 is zero.\n   **   ~~~   ** Check Sizing:Zone and ZoneControl:Thermostat inputs.\n   ************* Beginning System Sizing Calculations\n   ** Warning ** Since Zone Minimum Air Flow Input Method = CONSTANT, input for Fixed Minimum Air Flow Rate will be ignored.\n   **   ~~~   ** Occurs in AirTerminal:SingleDuct:VAV:Reheat = ZONE LARGEHOTEL BANQUET A  - STORY B1 VAV TERM\n   ** Warning ** Since Damper Heating Action = NORMAL, input for Maximum Flow Fraction During Reheat will be ignored.\n   **   ~~~   ** Occurs in AirTerminal:SingleDuct:VAV:Reheat = ZONE LARGEHOTEL BANQUET A  - STORY B1 VAV TERM\n   ** Warning ** Since Zone Minimum Air Flow Input Method = CONSTANT, input for Fixed Minimum Air Flow Rate will be ignored.\n   **   ~~~   ** Occurs in AirTerminal:SingleDuct:VAV:Reheat = ZONE LARGEHOTEL BANQUET A  - STORY GROUND VAV TERM\n   ** Warning ** Since Damper Heating Action = NORMAL, input for Maximum Flow Fraction During Reheat will be ignored.\n   **   ~~~   ** Occurs in AirTerminal:SingleDuct:VAV:Reheat = ZONE LARGEHOTEL BANQUET A  - STORY GROUND VAV TERM\n   ** Warning ** Since Zone Minimum Air Flow Input Method = CONSTANT, input for Fixed Minimum Air Flow Rate will be ignored.\n   **   ~~~   ** Occurs in AirTerminal:SingleDuct:VAV:Reheat = ZONE LARGEHOTEL BANQUET A END_A - STORY GROUND VAV TERM\n   ** Warning ** Since Damper Heating Action = NORMAL, input for Maximum Flow Fraction During Reheat will be ignored.\n   **   ~~~   ** Occurs in AirTerminal:SingleDuct:VAV:Reheat = ZONE LARGEHOTEL BANQUET A END_A - STORY GROUND VAV TERM\n   ** Warning ** Since Zone Minimum Air Flow Input Method = CONSTANT, input for Fixed Minimum Air Flow Rate will be ignored.\n   **   ~~~   ** Occurs in AirTerminal:SingleDuct:VAV:Reheat = ZONE LARGEHOTEL BANQUET B  - STORY B1 VAV TERM\n   ** Warning ** Since Damper Heating Action = NORMAL, input for Maximum Flow Fraction During Reheat will be ignored.\n   **   ~~~   ** Occurs in AirTerminal:SingleDuct:VAV:Reheat = ZONE LARGEHOTEL BANQUET B  - STORY B1 VAV TERM\n   ** Warning ** Since Zone Minimum Air Flow Input Method = CONSTANT, input for Fixed Minimum Air Flow Rate will be ignored.\n   **   ~~~   ** Occurs in AirTerminal:SingleDuct:VAV:Reheat = ZONE LARGEHOTEL BANQUET B  - STORY GROUND VAV TERM\n   ** Warning ** Since Damper Heating Action = NORMAL, input for Maximum Flow Fraction During Reheat will be ignored.\n   **   ~~~   ** Occurs in AirTerminal:SingleDuct:VAV:Reheat = ZONE LARGEHOTEL BANQUET B  - STORY GROUND VAV TERM\n   ** Warning ** Since Zone Minimum Air Flow Input Method = CONSTANT, input for Fixed Minimum Air Flow Rate will be ignored.\n   **   ~~~   ** Occurs in AirTerminal:SingleDuct:VAV:Reheat = ZONE LARGEHOTEL BANQUET B END_A - STORY GROUND VAV TERM\n   ** Warning ** Since Damper Heating Action = NORMAL, input for Maximum Flow Fraction During Reheat will be ignored.\n   **   ~~~   ** Occurs in AirTerminal:SingleDuct:VAV:Reheat = ZONE LARGEHOTEL BANQUET B END_A - STORY GROUND VAV TERM\n   ** Warning ** Since Zone Minimum Air Flow Input Method = CONSTANT, input for Fixed Minimum Air Flow Rate will be ignored.\n   **   ~~~   ** Occurs in AirTerminal:SingleDuct:VAV:Reheat = ZONE LARGEHOTEL BANQUET C  - STORY B1 VAV TERM\n   ** Warning ** Since Damper Heating Action = NORMAL, input for Maximum Flow Fraction During Reheat will be ignored.\n   **   ~~~   ** Occurs in AirTerminal:SingleDuct:VAV:Reheat = ZONE LARGEHOTEL BANQUET C  - STORY B1 VAV TERM\n   ** Warning ** Since Zone Minimum Air Flow Input Method = CONSTANT, input for Fixed Minimum Air Flow Rate will be ignored.\n   **   ~~~   ** Occurs in AirTerminal:SingleDuct:VAV:Reheat = ZONE LARGEHOTEL BANQUET C  - STORY GROUND VAV TERM\n   ** Warning ** Since Damper Heating Action = NORMAL, input for Maximum Flow Fraction During Reheat will be ignored.\n   **   ~~~   ** Occurs in AirTerminal:SingleDuct:VAV:Reheat = ZONE LARGEHOTEL BANQUET C  - STORY GROUND VAV TERM\n   ** Warning ** Since Zone Minimum Air Flow Input Method = CONSTANT, input for Fixed Minimum Air Flow Rate will be ignored.\n   **   ~~~   ** Occurs in AirTerminal:SingleDuct:VAV:Reheat = ZONE LARGEHOTEL BANQUET C END_A - STORY GROUND VAV TERM\n   ** Warning ** Since Damper Heating Action = NORMAL, input for Maximum Flow Fraction During Reheat will be ignored.\n   **   ~~~   ** Occurs in AirTerminal:SingleDuct:VAV:Reheat = ZONE LARGEHOTEL BANQUET C END_A - STORY GROUND VAV TERM\n   ** Warning ** Since Zone Minimum Air Flow Input Method = CONSTANT, input for Fixed Minimum Air Flow Rate will be ignored.\n   **   ~~~   ** Occurs in AirTerminal:SingleDuct:VAV:Reheat = ZONE LARGEHOTEL CAFE A  - STORY B1 VAV TERM\n   ** Warning ** Since Damper Heating Action = NORMAL, input for Maximum Flow Fraction During Reheat will be ignored.\n   **   ~~~   ** Occurs in AirTerminal:SingleDuct:VAV:Reheat = ZONE LARGEHOTEL CAFE A  - STORY B1 VAV TERM\n   ** Warning ** Since Zone Minimum Air Flow Input Method = CONSTANT, input for Fixed Minimum Air Flow Rate will be ignored.\n   **   ~~~   ** Occurs in AirTerminal:SingleDuct:VAV:Reheat = ZONE LARGEHOTEL CAFE A END_A - STORY B1 VAV TERM\n   ** Warning ** Since Damper Heating Action = NORMAL, input for Maximum Flow Fraction During Reheat will be ignored.\n   **   ~~~   ** Occurs in AirTerminal:SingleDuct:VAV:Reheat = ZONE LARGEHOTEL CAFE A END_A - STORY B1 VAV TERM\n   ** Warning ** Since Zone Minimum Air Flow Input Method = CONSTANT, input for Fixed Minimum Air Flow Rate will be ignored.\n   **   ~~~   ** Occurs in AirTerminal:SingleDuct:VAV:Reheat = ZONE LARGEHOTEL CAFE B  - STORY B1 VAV TERM\n   ** Warning ** Since Damper Heating Action = NORMAL, input for Maximum Flow Fraction During Reheat will be ignored.\n   **   ~~~   ** Occurs in AirTerminal:SingleDuct:VAV:Reheat = ZONE LARGEHOTEL CAFE B  - STORY B1 VAV TERM\n   ** Warning ** Since Zone Minimum Air Flow Input Method = CONSTANT, input for Fixed Minimum Air Flow Rate will be ignored.\n   **   ~~~   ** Occurs in AirTerminal:SingleDuct:VAV:Reheat = ZONE LARGEHOTEL CAFE B END_A - STORY B1 VAV TERM\n   ** Warning ** Since Damper Heating Action = NORMAL, input for Maximum Flow Fraction During Reheat will be ignored.\n   **   ~~~   ** Occurs in AirTerminal:SingleDuct:VAV:Reheat = ZONE LARGEHOTEL CAFE B END_A - STORY B1 VAV TERM\n   ** Warning ** Since Zone Minimum Air Flow Input Method = CONSTANT, input for Fixed Minimum Air Flow Rate will be ignored.\n   **   ~~~   ** Occurs in AirTerminal:SingleDuct:VAV:Reheat = ZONE LARGEHOTEL CAFE C  - STORY B1 VAV TERM\n   ** Warning ** Since Damper Heating Action = NORMAL, input for Maximum Flow Fraction During Reheat will be ignored.\n   **   ~~~   ** Occurs in AirTerminal:SingleDuct:VAV:Reheat = ZONE LARGEHOTEL CAFE C  - STORY B1 VAV TERM\n   ** Warning ** Since Zone Minimum Air Flow Input Method = CONSTANT, input for Fixed Minimum Air Flow Rate will be ignored.\n   **   ~~~   ** Occurs in AirTerminal:SingleDuct:VAV:Reheat = ZONE LARGEHOTEL CAFE C END_A - STORY B1 VAV TERM\n   ** Warning ** Since Damper Heating Action = NORMAL, input for Maximum Flow Fraction During Reheat will be ignored.\n   **   ~~~   ** Occurs in AirTerminal:SingleDuct:VAV:Reheat = ZONE LARGEHOTEL CAFE C END_A - STORY B1 VAV TERM\n   ** Warning ** Since Zone Minimum Air Flow Input Method = CONSTANT, input for Fixed Minimum Air Flow Rate will be ignored.\n   **   ~~~   ** Occurs in AirTerminal:SingleDuct:VAV:Reheat = ZONE LARGEHOTEL CORRIDOR A  - STORY MID VAV TERM\n   ** Warning ** Since Damper Heating Action = NORMAL, input for Maximum Flow Fraction During Reheat will be ignored.\n   **   ~~~   ** Occurs in AirTerminal:SingleDuct:VAV:Reheat = ZONE LARGEHOTEL CORRIDOR A  - STORY MID VAV TERM\n   ** Warning ** Since Zone Minimum Air Flow Input Method = CONSTANT, input for Fixed Minimum Air Flow Rate will be ignored.\n   **   ~~~   ** Occurs in AirTerminal:SingleDuct:VAV:Reheat = ZONE LARGEHOTEL CORRIDOR A  - STORY MID2 VAV TERM\n   ** Warning ** Since Damper Heating Action = NORMAL, input for Maximum Flow Fraction During Reheat will be ignored.\n   **   ~~~   ** Occurs in AirTerminal:SingleDuct:VAV:Reheat = ZONE LARGEHOTEL CORRIDOR A  - STORY MID2 VAV TERM\n   ** Warning ** Since Zone Minimum Air Flow Input Method = CONSTANT, input for Fixed Minimum Air Flow Rate will be ignored.\n   **   ~~~   ** Occurs in AirTerminal:SingleDuct:VAV:Reheat = ZONE LARGEHOTEL CORRIDOR A END_A - STORY MID VAV TERM\n   ** Warning ** Since Damper Heating Action = NORMAL, input for Maximum Flow Fraction During Reheat will be ignored.\n   **   ~~~   ** Occurs in AirTerminal:SingleDuct:VAV:Reheat = ZONE LARGEHOTEL CORRIDOR A END_A - STORY MID VAV TERM\n   ** Warning ** Since Zone Minimum Air Flow Input Method = CONSTANT, input for Fixed Minimum Air Flow Rate will be ignored.\n   **   ~~~   ** Occurs in AirTerminal:SingleDuct:VAV:Reheat = ZONE LARGEHOTEL CORRIDOR B  - STORY MID VAV TERM\n   ** Warning ** Since Damper Heating Action = NORMAL, input for Maximum Flow Fraction During Reheat will be ignored.\n   **   ~~~   ** Occurs in AirTerminal:SingleDuct:VAV:Reheat = ZONE LARGEHOTEL CORRIDOR B  - STORY MID VAV TERM\n   ** Warning ** Since Zone Minimum Air Flow Input Method = CONSTANT, input for Fixed Minimum Air Flow Rate will be ignored.\n   **   ~~~   ** Occurs in AirTerminal:SingleDuct:VAV:Reheat = ZONE LARGEHOTEL CORRIDOR B  - STORY MID2 VAV TERM\n   ** Warning ** Since Damper Heating Action = NORMAL, input for Maximum Flow Fraction During Reheat will be ignored.\n   **   ~~~   ** Occurs in AirTerminal:SingleDuct:VAV:Reheat = ZONE LARGEHOTEL CORRIDOR B  - STORY MID2 VAV TERM\n   ** Warning ** Since Zone Minimum Air Flow Input Method = CONSTANT, input for Fixed Minimum Air Flow Rate will be ignored.\n   **   ~~~   ** Occurs in AirTerminal:SingleDuct:VAV:Reheat = ZONE LARGEHOTEL CORRIDOR B END_A - STORY MID VAV TERM\n   ** Warning ** Since Damper Heating Action = NORMAL, input for Maximum Flow Fraction During Reheat will be ignored.\n   **   ~~~   ** Occurs in AirTerminal:SingleDuct:VAV:Reheat = ZONE LARGEHOTEL CORRIDOR B END_A - STORY MID VAV TERM\n   ** Warning ** Since Zone Minimum Air Flow Input Method = CONSTANT, input for Fixed Minimum Air Flow Rate will be ignored.\n   **   ~~~   ** Occurs in AirTerminal:SingleDuct:VAV:Reheat = ZONE LARGEHOTEL CORRIDOR C  - STORY MID VAV TERM\n   ** Warning ** Since Damper Heating Action = NORMAL, input for Maximum Flow Fraction During Reheat will be ignored.\n   **   ~~~   ** Occurs in AirTerminal:SingleDuct:VAV:Reheat = ZONE LARGEHOTEL CORRIDOR C  - STORY MID VAV TERM\n   ** Warning ** Since Zone Minimum Air Flow Input Method = CONSTANT, input for Fixed Minimum Air Flow Rate will be ignored.\n   **   ~~~   ** Occurs in AirTerminal:SingleDuct:VAV:Reheat = ZONE LARGEHOTEL CORRIDOR C  - STORY MID2 VAV TERM\n   ** Warning ** Since Damper Heating Action = NORMAL, input for Maximum Flow Fraction During Reheat will be ignored.\n   **   ~~~   ** Occurs in AirTerminal:SingleDuct:VAV:Reheat = ZONE LARGEHOTEL CORRIDOR C  - STORY MID2 VAV TERM\n   ** Warning ** Since Zone Minimum Air Flow Input Method = CONSTANT, input for Fixed Minimum Air Flow Rate will be ignored.\n   **   ~~~   ** Occurs in AirTerminal:SingleDuct:VAV:Reheat = ZONE LARGEHOTEL CORRIDOR C END_A - STORY MID VAV TERM\n   ** Warning ** Since Damper Heating Action = NORMAL, input for Maximum Flow Fraction During Reheat will be ignored.\n   **   ~~~   ** Occurs in AirTerminal:SingleDuct:VAV:Reheat = ZONE LARGEHOTEL CORRIDOR C END_A - STORY MID VAV TERM\n   ** Warning ** Since Zone Minimum Air Flow Input Method = CONSTANT, input for Fixed Minimum Air Flow Rate will be ignored.\n   **   ~~~   ** Occurs in AirTerminal:SingleDuct:VAV:Reheat = ZONE LARGEHOTEL GUESTROOM A  - STORY MID2 VAV TERM\n   ** Warning ** Since Damper Heating Action = NORMAL, input for Maximum Flow Fraction During Reheat will be ignored.\n   **   ~~~   ** Occurs in AirTerminal:SingleDuct:VAV:Reheat = ZONE LARGEHOTEL GUESTROOM A  - STORY MID2 VAV TERM\n   ** Warning ** Since Zone Minimum Air Flow Input Method = CONSTANT, input for Fixed Minimum Air Flow Rate will be ignored.\n   **   ~~~   ** Occurs in AirTerminal:SingleDuct:VAV:Reheat = ZONE LARGEHOTEL GUESTROOM A  - STORY TOP VAV TERM\n   ** Warning ** Since Damper Heating Action = NORMAL, input for Maximum Flow Fraction During Reheat will be ignored.\n   **   ~~~   ** Occurs in AirTerminal:SingleDuct:VAV:Reheat = ZONE LARGEHOTEL GUESTROOM A  - STORY TOP VAV TERM\n   ** Warning ** Since Zone Minimum Air Flow Input Method = CONSTANT, input for Fixed Minimum Air Flow Rate will be ignored.\n   **   ~~~   ** Occurs in AirTerminal:SingleDuct:VAV:Reheat = ZONE LARGEHOTEL GUESTROOM A END_A - STORY MID2 VAV TERM\n   ** Warning ** Since Damper Heating Action = NORMAL, input for Maximum Flow Fraction During Reheat will be ignored.\n   **   ~~~   ** Occurs in AirTerminal:SingleDuct:VAV:Reheat = ZONE LARGEHOTEL GUESTROOM A END_A - STORY MID2 VAV TERM\n   ** Warning ** Since Zone Minimum Air Flow Input Method = CONSTANT, input for Fixed Minimum Air Flow Rate will be ignored.\n   **   ~~~   ** Occurs in AirTerminal:SingleDuct:VAV:Reheat = ZONE LARGEHOTEL GUESTROOM A END_A - STORY TOP VAV TERM\n   ** Warning ** Since Damper Heating Action = NORMAL, input for Maximum Flow Fraction During Reheat will be ignored.\n   **   ~~~   ** Occurs in AirTerminal:SingleDuct:VAV:Reheat = ZONE LARGEHOTEL GUESTROOM A END_A - STORY TOP VAV TERM\n   ** Warning ** Since Zone Minimum Air Flow Input Method = CONSTANT, input for Fixed Minimum Air Flow Rate will be ignored.\n   **   ~~~   ** Occurs in AirTerminal:SingleDuct:VAV:Reheat = ZONE LARGEHOTEL GUESTROOM A END_B - STORY TOP VAV TERM\n   ** Warning ** Since Damper Heating Action = NORMAL, input for Maximum Flow Fraction During Reheat will be ignored.\n   **   ~~~   ** Occurs in AirTerminal:SingleDuct:VAV:Reheat = ZONE LARGEHOTEL GUESTROOM A END_B - STORY TOP VAV TERM\n   ** Warning ** Since Zone Minimum Air Flow Input Method = CONSTANT, input for Fixed Minimum Air Flow Rate will be ignored.\n   **   ~~~   ** Occurs in AirTerminal:SingleDuct:VAV:Reheat = ZONE LARGEHOTEL GUESTROOM B  - STORY MID2 VAV TERM\n   ** Warning ** Since Damper Heating Action = NORMAL, input for Maximum Flow Fraction During Reheat will be ignored.\n   **   ~~~   ** Occurs in AirTerminal:SingleDuct:VAV:Reheat = ZONE LARGEHOTEL GUESTROOM B  - STORY MID2 VAV TERM\n   ** Warning ** Since Zone Minimum Air Flow Input Method = CONSTANT, input for Fixed Minimum Air Flow Rate will be ignored.\n   **   ~~~   ** Occurs in AirTerminal:SingleDuct:VAV:Reheat = ZONE LARGEHOTEL GUESTROOM B  - STORY TOP VAV TERM\n   ** Warning ** Since Damper Heating Action = NORMAL, input for Maximum Flow Fraction During Reheat will be ignored.\n   **   ~~~   ** Occurs in AirTerminal:SingleDuct:VAV:Reheat = ZONE LARGEHOTEL GUESTROOM B  - STORY TOP VAV TERM\n   ** Warning ** Since Zone Minimum Air Flow Input Method = CONSTANT, input for Fixed Minimum Air Flow Rate will be ignored.\n   **   ~~~   ** Occurs in AirTerminal:SingleDuct:VAV:Reheat = ZONE LARGEHOTEL GUESTROOM B END_A - STORY MID2 VAV TERM\n   ** Warning ** Since Damper Heating Action = NORMAL, input for Maximum Flow Fraction During Reheat will be ignored.\n   **   ~~~   ** Occurs in AirTerminal:SingleDuct:VAV:Reheat = ZONE LARGEHOTEL GUESTROOM B END_A - STORY MID2 VAV TERM\n   ** Warning ** Since Zone Minimum Air Flow Input Method = CONSTANT, input for Fixed Minimum Air Flow Rate will be ignored.\n   **   ~~~   ** Occurs in AirTerminal:SingleDuct:VAV:Reheat = ZONE LARGEHOTEL GUESTROOM B END_A - STORY TOP VAV TERM\n   ** Warning ** Since Damper Heating Action = NORMAL, input for Maximum Flow Fraction During Reheat will be ignored.\n   **   ~~~   ** Occurs in AirTerminal:SingleDuct:VAV:Reheat = ZONE LARGEHOTEL GUESTROOM B END_A - STORY TOP VAV TERM\n   ** Warning ** Since Zone Minimum Air Flow Input Method = CONSTANT, input for Fixed Minimum Air Flow Rate will be ignored.\n   **   ~~~   ** Occurs in AirTerminal:SingleDuct:VAV:Reheat = ZONE LARGEHOTEL GUESTROOM B END_B - STORY TOP VAV TERM\n   ** Warning ** Since Damper Heating Action = NORMAL, input for Maximum Flow Fraction During Reheat will be ignored.\n   **   ~~~   ** Occurs in AirTerminal:SingleDuct:VAV:Reheat = ZONE LARGEHOTEL GUESTROOM B END_B - STORY TOP VAV TERM\n   ** Warning ** Since Zone Minimum Air Flow Input Method = CONSTANT, input for Fixed Minimum Air Flow Rate will be ignored.\n   **   ~~~   ** Occurs in AirTerminal:SingleDuct:VAV:Reheat = ZONE LARGEHOTEL GUESTROOM C  - STORY MID2 VAV TERM\n   ** Warning ** Since Damper Heating Action = NORMAL, input for Maximum Flow Fraction During Reheat will be ignored.\n   **   ~~~   ** Occurs in AirTerminal:SingleDuct:VAV:Reheat = ZONE LARGEHOTEL GUESTROOM C  - STORY MID2 VAV TERM\n   ** Warning ** Since Zone Minimum Air Flow Input Method = CONSTANT, input for Fixed Minimum Air Flow Rate will be ignored.\n   **   ~~~   ** Occurs in AirTerminal:SingleDuct:VAV:Reheat = ZONE LARGEHOTEL GUESTROOM C  - STORY TOP VAV TERM\n   ** Warning ** Since Damper Heating Action = NORMAL, input for Maximum Flow Fraction During Reheat will be ignored.\n   **   ~~~   ** Occurs in AirTerminal:SingleDuct:VAV:Reheat = ZONE LARGEHOTEL GUESTROOM C  - STORY TOP VAV TERM\n   ** Warning ** Since Zone Minimum Air Flow Input Method = CONSTANT, input for Fixed Minimum Air Flow Rate will be ignored.\n   **   ~~~   ** Occurs in AirTerminal:SingleDuct:VAV:Reheat = ZONE LARGEHOTEL GUESTROOM C END_A - STORY MID2 VAV TERM\n   ** Warning ** Since Damper Heating Action = NORMAL, input for Maximum Flow Fraction During Reheat will be ignored.\n   **   ~~~   ** Occurs in AirTerminal:SingleDuct:VAV:Reheat = ZONE LARGEHOTEL GUESTROOM C END_A - STORY MID2 VAV TERM\n   ** Warning ** Since Zone Minimum Air Flow Input Method = CONSTANT, input for Fixed Minimum Air Flow Rate will be ignored.\n   **   ~~~   ** Occurs in AirTerminal:SingleDuct:VAV:Reheat = ZONE LARGEHOTEL GUESTROOM C END_A - STORY TOP VAV TERM\n   ** Warning ** Since Damper Heating Action = NORMAL, input for Maximum Flow Fraction During Reheat will be ignored.\n   **   ~~~   ** Occurs in AirTerminal:SingleDuct:VAV:Reheat = ZONE LARGEHOTEL GUESTROOM C END_A - STORY TOP VAV TERM\n   ** Warning ** Since Zone Minimum Air Flow Input Method = CONSTANT, input for Fixed Minimum Air Flow Rate will be ignored.\n   **   ~~~   ** Occurs in AirTerminal:SingleDuct:VAV:Reheat = ZONE LARGEHOTEL GUESTROOM C END_B - STORY TOP VAV TERM\n   ** Warning ** Since Damper Heating Action = NORMAL, input for Maximum Flow Fraction During Reheat will be ignored.\n   **   ~~~   ** Occurs in AirTerminal:SingleDuct:VAV:Reheat = ZONE LARGEHOTEL GUESTROOM C END_B - STORY TOP VAV TERM\n   ** Warning ** Since Zone Minimum Air Flow Input Method = CONSTANT, input for Fixed Minimum Air Flow Rate will be ignored.\n   **   ~~~   ** Occurs in AirTerminal:SingleDuct:VAV:Reheat = ZONE LARGEHOTEL KITCHEN A  - STORY B1 VAV TERM\n   ** Warning ** Since Damper Heating Action = NORMAL, input for Maximum Flow Fraction During Reheat will be ignored.\n   **   ~~~   ** Occurs in AirTerminal:SingleDuct:VAV:Reheat = ZONE LARGEHOTEL KITCHEN A  - STORY B1 VAV TERM\n   ** Warning ** Since Zone Minimum Air Flow Input Method = CONSTANT, input for Fixed Minimum Air Flow Rate will be ignored.\n   **   ~~~   ** Occurs in AirTerminal:SingleDuct:VAV:Reheat = ZONE LARGEHOTEL KITCHEN B  - STORY B1 VAV TERM\n   ** Warning ** Since Damper Heating Action = NORMAL, input for Maximum Flow Fraction During Reheat will be ignored.\n   **   ~~~   ** Occurs in AirTerminal:SingleDuct:VAV:Reheat = ZONE LARGEHOTEL KITCHEN B  - STORY B1 VAV TERM\n   ** Warning ** Since Zone Minimum Air Flow Input Method = CONSTANT, input for Fixed Minimum Air Flow Rate will be ignored.\n   **   ~~~   ** Occurs in AirTerminal:SingleDuct:VAV:Reheat = ZONE LARGEHOTEL KITCHEN C  - STORY B1 VAV TERM\n   ** Warning ** Since Damper Heating Action = NORMAL, input for Maximum Flow Fraction During Reheat will be ignored.\n   **   ~~~   ** Occurs in AirTerminal:SingleDuct:VAV:Reheat = ZONE LARGEHOTEL KITCHEN C  - STORY B1 VAV TERM\n   ** Warning ** Since Zone Minimum Air Flow Input Method = CONSTANT, input for Fixed Minimum Air Flow Rate will be ignored.\n   **   ~~~   ** Occurs in AirTerminal:SingleDuct:VAV:Reheat = ZONE LARGEHOTEL LAUNDRY A  - STORY B1 VAV TERM\n   ** Warning ** Since Damper Heating Action = NORMAL, input for Maximum Flow Fraction During Reheat will be ignored.\n   **   ~~~   ** Occurs in AirTerminal:SingleDuct:VAV:Reheat = ZONE LARGEHOTEL LAUNDRY A  - STORY B1 VAV TERM\n   ** Warning ** Since Zone Minimum Air Flow Input Method = CONSTANT, input for Fixed Minimum Air Flow Rate will be ignored.\n   **   ~~~   ** Occurs in AirTerminal:SingleDuct:VAV:Reheat = ZONE LARGEHOTEL LAUNDRY B  - STORY B1 VAV TERM\n   ** Warning ** Since Damper Heating Action = NORMAL, input for Maximum Flow Fraction During Reheat will be ignored.\n   **   ~~~   ** Occurs in AirTerminal:SingleDuct:VAV:Reheat = ZONE LARGEHOTEL LAUNDRY B  - STORY B1 VAV TERM\n   ** Warning ** Since Zone Minimum Air Flow Input Method = CONSTANT, input for Fixed Minimum Air Flow Rate will be ignored.\n   **   ~~~   ** Occurs in AirTerminal:SingleDuct:VAV:Reheat = ZONE LARGEHOTEL LAUNDRY C  - STORY B1 VAV TERM\n   ** Warning ** Since Damper Heating Action = NORMAL, input for Maximum Flow Fraction During Reheat will be ignored.\n   **   ~~~   ** Occurs in AirTerminal:SingleDuct:VAV:Reheat = ZONE LARGEHOTEL LAUNDRY C  - STORY B1 VAV TERM\n   ** Warning ** Since Zone Minimum Air Flow Input Method = CONSTANT, input for Fixed Minimum Air Flow Rate will be ignored.\n   **   ~~~   ** Occurs in AirTerminal:SingleDuct:VAV:Reheat = ZONE LARGEHOTEL LOBBY A  - STORY GROUND VAV TERM\n   ** Warning ** Since Damper Heating Action = NORMAL, input for Maximum Flow Fraction During Reheat will be ignored.\n   **   ~~~   ** Occurs in AirTerminal:SingleDuct:VAV:Reheat = ZONE LARGEHOTEL LOBBY A  - STORY GROUND VAV TERM\n   ** Warning ** Since Zone Minimum Air Flow Input Method = CONSTANT, input for Fixed Minimum Air Flow Rate will be ignored.\n   **   ~~~   ** Occurs in AirTerminal:SingleDuct:VAV:Reheat = ZONE LARGEHOTEL LOBBY A  - STORY MID VAV TERM\n   ** Warning ** Since Damper Heating Action = NORMAL, input for Maximum Flow Fraction During Reheat will be ignored.\n   **   ~~~   ** Occurs in AirTerminal:SingleDuct:VAV:Reheat = ZONE LARGEHOTEL LOBBY A  - STORY MID VAV TERM\n   ** Warning ** Since Zone Minimum Air Flow Input Method = CONSTANT, input for Fixed Minimum Air Flow Rate will be ignored.\n   **   ~~~   ** Occurs in AirTerminal:SingleDuct:VAV:Reheat = ZONE LARGEHOTEL LOBBY A END_B - STORY GROUND VAV TERM\n   ** Warning ** Since Damper Heating Action = NORMAL, input for Maximum Flow Fraction During Reheat will be ignored.\n   **   ~~~   ** Occurs in AirTerminal:SingleDuct:VAV:Reheat = ZONE LARGEHOTEL LOBBY A END_B - STORY GROUND VAV TERM\n   ** Warning ** Since Zone Minimum Air Flow Input Method = CONSTANT, input for Fixed Minimum Air Flow Rate will be ignored.\n   **   ~~~   ** Occurs in AirTerminal:SingleDuct:VAV:Reheat = ZONE LARGEHOTEL LOBBY A END_B - STORY MID VAV TERM\n   ** Warning ** Since Damper Heating Action = NORMAL, input for Maximum Flow Fraction During Reheat will be ignored.\n   **   ~~~   ** Occurs in AirTerminal:SingleDuct:VAV:Reheat = ZONE LARGEHOTEL LOBBY A END_B - STORY MID VAV TERM\n   ** Warning ** Since Zone Minimum Air Flow Input Method = CONSTANT, input for Fixed Minimum Air Flow Rate will be ignored.\n   **   ~~~   ** Occurs in AirTerminal:SingleDuct:VAV:Reheat = ZONE LARGEHOTEL LOBBY B  - STORY GROUND VAV TERM\n   ** Warning ** Since Damper Heating Action = NORMAL, input for Maximum Flow Fraction During Reheat will be ignored.\n   **   ~~~   ** Occurs in AirTerminal:SingleDuct:VAV:Reheat = ZONE LARGEHOTEL LOBBY B  - STORY GROUND VAV TERM\n   ** Warning ** Since Zone Minimum Air Flow Input Method = CONSTANT, input for Fixed Minimum Air Flow Rate will be ignored.\n   **   ~~~   ** Occurs in AirTerminal:SingleDuct:VAV:Reheat = ZONE LARGEHOTEL LOBBY B  - STORY MID VAV TERM\n   ** Warning ** Since Damper Heating Action = NORMAL, input for Maximum Flow Fraction During Reheat will be ignored.\n   **   ~~~   ** Occurs in AirTerminal:SingleDuct:VAV:Reheat = ZONE LARGEHOTEL LOBBY B  - STORY MID VAV TERM\n   ** Warning ** Since Zone Minimum Air Flow Input Method = CONSTANT, input for Fixed Minimum Air Flow Rate will be ignored.\n   **   ~~~   ** Occurs in AirTerminal:SingleDuct:VAV:Reheat = ZONE LARGEHOTEL LOBBY B END_B - STORY GROUND VAV TERM\n   ** Warning ** Since Damper Heating Action = NORMAL, input for Maximum Flow Fraction During Reheat will be ignored.\n   **   ~~~   ** Occurs in AirTerminal:SingleDuct:VAV:Reheat = ZONE LARGEHOTEL LOBBY B END_B - STORY GROUND VAV TERM\n   ** Warning ** Since Zone Minimum Air Flow Input Method = CONSTANT, input for Fixed Minimum Air Flow Rate will be ignored.\n   **   ~~~   ** Occurs in AirTerminal:SingleDuct:VAV:Reheat = ZONE LARGEHOTEL LOBBY B END_B - STORY MID VAV TERM\n   ** Warning ** Since Damper Heating Action = NORMAL, input for Maximum Flow Fraction During Reheat will be ignored.\n   **   ~~~   ** Occurs in AirTerminal:SingleDuct:VAV:Reheat = ZONE LARGEHOTEL LOBBY B END_B - STORY MID VAV TERM\n   ** Warning ** Since Zone Minimum Air Flow Input Method = CONSTANT, input for Fixed Minimum Air Flow Rate will be ignored.\n   **   ~~~   ** Occurs in AirTerminal:SingleDuct:VAV:Reheat = ZONE LARGEHOTEL LOBBY C  - STORY GROUND VAV TERM\n   ** Warning ** Since Damper Heating Action = NORMAL, input for Maximum Flow Fraction During Reheat will be ignored.\n   **   ~~~   ** Occurs in AirTerminal:SingleDuct:VAV:Reheat = ZONE LARGEHOTEL LOBBY C  - STORY GROUND VAV TERM\n   ** Warning ** Since Zone Minimum Air Flow Input Method = CONSTANT, input for Fixed Minimum Air Flow Rate will be ignored.\n   **   ~~~   ** Occurs in AirTerminal:SingleDuct:VAV:Reheat = ZONE LARGEHOTEL LOBBY C  - STORY MID VAV TERM\n   ** Warning ** Since Damper Heating Action = NORMAL, input for Maximum Flow Fraction During Reheat will be ignored.\n   **   ~~~   ** Occurs in AirTerminal:SingleDuct:VAV:Reheat = ZONE LARGEHOTEL LOBBY C  - STORY MID VAV TERM\n   ** Warning ** Since Zone Minimum Air Flow Input Method = CONSTANT, input for Fixed Minimum Air Flow Rate will be ignored.\n   **   ~~~   ** Occurs in AirTerminal:SingleDuct:VAV:Reheat = ZONE LARGEHOTEL LOBBY C END_B - STORY GROUND VAV TERM\n   ** Warning ** Since Damper Heating Action = NORMAL, input for Maximum Flow Fraction During Reheat will be ignored.\n   **   ~~~   ** Occurs in AirTerminal:SingleDuct:VAV:Reheat = ZONE LARGEHOTEL LOBBY C END_B - STORY GROUND VAV TERM\n   ** Warning ** Since Zone Minimum Air Flow Input Method = CONSTANT, input for Fixed Minimum Air Flow Rate will be ignored.\n   **   ~~~   ** Occurs in AirTerminal:SingleDuct:VAV:Reheat = ZONE LARGEHOTEL LOBBY C END_B - STORY MID VAV TERM\n   ** Warning ** Since Damper Heating Action = NORMAL, input for Maximum Flow Fraction During Reheat will be ignored.\n   **   ~~~   ** Occurs in AirTerminal:SingleDuct:VAV:Reheat = ZONE LARGEHOTEL LOBBY C END_B - STORY MID VAV TERM\n   ** Warning ** Since Zone Minimum Air Flow Input Method = CONSTANT, input for Fixed Minimum Air Flow Rate will be ignored.\n   **   ~~~   ** Occurs in AirTerminal:SingleDuct:VAV:Reheat = ZONE LARGEHOTEL MECHANICAL A  - STORY B1 VAV TERM\n   ** Warning ** Since Damper Heating Action = NORMAL, input for Maximum Flow Fraction During Reheat will be ignored.\n   **   ~~~   ** Occurs in AirTerminal:SingleDuct:VAV:Reheat = ZONE LARGEHOTEL MECHANICAL A  - STORY B1 VAV TERM\n   ** Warning ** Since Zone Minimum Air Flow Input Method = CONSTANT, input for Fixed Minimum Air Flow Rate will be ignored.\n   **   ~~~   ** Occurs in AirTerminal:SingleDuct:VAV:Reheat = ZONE LARGEHOTEL MECHANICAL A END_B - STORY B1 VAV TERM\n   ** Warning ** Since Damper Heating Action = NORMAL, input for Maximum Flow Fraction During Reheat will be ignored.\n   **   ~~~   ** Occurs in AirTerminal:SingleDuct:VAV:Reheat = ZONE LARGEHOTEL MECHANICAL A END_B - STORY B1 VAV TERM\n   ** Warning ** Since Zone Minimum Air Flow Input Method = CONSTANT, input for Fixed Minimum Air Flow Rate will be ignored.\n   **   ~~~   ** Occurs in AirTerminal:SingleDuct:VAV:Reheat = ZONE LARGEHOTEL MECHANICAL B  - STORY B1 VAV TERM\n   ** Warning ** Since Damper Heating Action = NORMAL, input for Maximum Flow Fraction During Reheat will be ignored.\n   **   ~~~   ** Occurs in AirTerminal:SingleDuct:VAV:Reheat = ZONE LARGEHOTEL MECHANICAL B  - STORY B1 VAV TERM\n   ** Warning ** Since Zone Minimum Air Flow Input Method = CONSTANT, input for Fixed Minimum Air Flow Rate will be ignored.\n   **   ~~~   ** Occurs in AirTerminal:SingleDuct:VAV:Reheat = ZONE LARGEHOTEL MECHANICAL B END_B - STORY B1 VAV TERM\n   ** Warning ** Since Damper Heating Action = NORMAL, input for Maximum Flow Fraction During Reheat will be ignored.\n   **   ~~~   ** Occurs in AirTerminal:SingleDuct:VAV:Reheat = ZONE LARGEHOTEL MECHANICAL B END_B - STORY B1 VAV TERM\n   ** Warning ** Since Zone Minimum Air Flow Input Method = CONSTANT, input for Fixed Minimum Air Flow Rate will be ignored.\n   **   ~~~   ** Occurs in AirTerminal:SingleDuct:VAV:Reheat = ZONE LARGEHOTEL MECHANICAL C  - STORY B1 VAV TERM\n   ** Warning ** Since Damper Heating Action = NORMAL, input for Maximum Flow Fraction During Reheat will be ignored.\n   **   ~~~   ** Occurs in AirTerminal:SingleDuct:VAV:Reheat = ZONE LARGEHOTEL MECHANICAL C  - STORY B1 VAV TERM\n   ** Warning ** Since Zone Minimum Air Flow Input Method = CONSTANT, input for Fixed Minimum Air Flow Rate will be ignored.\n   **   ~~~   ** Occurs in AirTerminal:SingleDuct:VAV:Reheat = ZONE LARGEHOTEL MECHANICAL C END_B - STORY B1 VAV TERM\n   ** Warning ** Since Damper Heating Action = NORMAL, input for Maximum Flow Fraction During Reheat will be ignored.\n   **   ~~~   ** Occurs in AirTerminal:SingleDuct:VAV:Reheat = ZONE LARGEHOTEL MECHANICAL C END_B - STORY B1 VAV TERM\n   ** Warning ** Since Zone Minimum Air Flow Input Method = CONSTANT, input for Fixed Minimum Air Flow Rate will be ignored.\n   **   ~~~   ** Occurs in AirTerminal:SingleDuct:VAV:Reheat = ZONE LARGEHOTEL RETAIL A  - STORY B1 VAV TERM\n   ** Warning ** Since Damper Heating Action = NORMAL, input for Maximum Flow Fraction During Reheat will be ignored.\n   **   ~~~   ** Occurs in AirTerminal:SingleDuct:VAV:Reheat = ZONE LARGEHOTEL RETAIL A  - STORY B1 VAV TERM\n   ** Warning ** Since Zone Minimum Air Flow Input Method = CONSTANT, input for Fixed Minimum Air Flow Rate will be ignored.\n   **   ~~~   ** Occurs in AirTerminal:SingleDuct:VAV:Reheat = ZONE LARGEHOTEL RETAIL B  - STORY B1 VAV TERM\n   ** Warning ** Since Damper Heating Action = NORMAL, input for Maximum Flow Fraction During Reheat will be ignored.\n   **   ~~~   ** Occurs in AirTerminal:SingleDuct:VAV:Reheat = ZONE LARGEHOTEL RETAIL B  - STORY B1 VAV TERM\n   ** Warning ** Since Zone Minimum Air Flow Input Method = CONSTANT, input for Fixed Minimum Air Flow Rate will be ignored.\n   **   ~~~   ** Occurs in AirTerminal:SingleDuct:VAV:Reheat = ZONE LARGEHOTEL RETAIL C  - STORY B1 VAV TERM\n   ** Warning ** Since Damper Heating Action = NORMAL, input for Maximum Flow Fraction During Reheat will be ignored.\n   **   ~~~   ** Occurs in AirTerminal:SingleDuct:VAV:Reheat = ZONE LARGEHOTEL RETAIL C  - STORY B1 VAV TERM\n   ** Warning ** Since Zone Minimum Air Flow Input Method = CONSTANT, input for Fixed Minimum Air Flow Rate will be ignored.\n   **   ~~~   ** Occurs in AirTerminal:SingleDuct:VAV:Reheat = ZONE LARGEHOTEL STORAGE A  - STORY B1 VAV TERM\n   ** Warning ** Since Damper Heating Action = NORMAL, input for Maximum Flow Fraction During Reheat will be ignored.\n   **   ~~~   ** Occurs in AirTerminal:SingleDuct:VAV:Reheat = ZONE LARGEHOTEL STORAGE A  - STORY B1 VAV TERM\n   ** Warning ** Since Zone Minimum Air Flow Input Method = CONSTANT, input for Fixed Minimum Air Flow Rate will be ignored.\n   **   ~~~   ** Occurs in AirTerminal:SingleDuct:VAV:Reheat = ZONE LARGEHOTEL STORAGE B  - STORY B1 VAV TERM\n   ** Warning ** Since Damper Heating Action = NORMAL, input for Maximum Flow Fraction During Reheat will be ignored.\n   **   ~~~   ** Occurs in AirTerminal:SingleDuct:VAV:Reheat = ZONE LARGEHOTEL STORAGE B  - STORY B1 VAV TERM\n   ** Warning ** Since Zone Minimum Air Flow Input Method = CONSTANT, input for Fixed Minimum Air Flow Rate will be ignored.\n   **   ~~~   ** Occurs in AirTerminal:SingleDuct:VAV:Reheat = ZONE LARGEHOTEL STORAGE C  - STORY B1 VAV TERM\n   ** Warning ** Since Damper Heating Action = NORMAL, input for Maximum Flow Fraction During Reheat will be ignored.\n   **   ~~~   ** Occurs in AirTerminal:SingleDuct:VAV:Reheat = ZONE LARGEHOTEL STORAGE C  - STORY B1 VAV TERM\n   ** Warning ** ManageSizing: Calculated Heating Design Air Flow Rate for System=9 ZONE VAV 1 is zero.\n   **   ~~~   ** Check Sizing:Zone and ZoneControl:Thermostat inputs.\n   ************* Beginning Plant Sizing Calculations\n   ** Warning ** GetElectricEIRChillerInput: Chiller:Electric:EIR=\"90.1-2004 WATERCOOLED  ROTARY SCREW CHILLER 0 268TONS 0.7KW/TON\"\n   **   ~~~   ** Energy input ratio as a function of temperature curve output is not equal to 1.0 (+ or - 10%) at reference conditions.\n   **   ~~~   ** Curve output at reference conditions = 1.205\n   ** Warning ** Missing temperature setpoint for LeavingSetpointModulated mode Boiler named HOT WATER LOOP BOILER 2303KBTU/HR 0.75 THERMAL EFF\n   **   ~~~   **   A temperature setpoint is needed at the outlet node of a boiler in variable flow mode, use a SetpointManager\n   **   ~~~   **   The overall loop setpoint will be assumed for Boiler. The simulation continues ... \n   ** Warning ** Output:Meter: invalid Key Name=\"DISTRICTCOOLING:FACILITY\" - not found.\n   ** Warning ** Output:Meter: invalid Key Name=\"DISTRICTHEATING:FACILITY\" - not found.\n   ** Warning ** Output:Meter:MeterFileOnly requested for \"Electricity:Facility\" (TimeStep), already on \"Output:Meter\". Will report to both eplusout.eso and eplusout.mtr\n   ************* Testing Individual Branch Integrity\n   ************* All Branches passed integrity testing\n   ************* Testing Individual Supply Air Path Integrity\n   ************* All Supply Air Paths passed integrity testing\n   ************* Testing Individual Return Air Path Integrity\n   ************* All Return Air Paths passed integrity testing\n   ************* No node connection errors were found.\n   ************* Beginning Simulation\n   ** Warning ** Processing Monthly Tabular Reports: Variable names not valid for this simulation\n   **   ~~~   ** ...use Output:Diagnostics,DisplayExtraWarnings; to show more details on individual variables.\n   ** Warning ** The resource referenced by LifeCycleCost:UsePriceEscalation= \"U.S. AVG  COMMERCIAL-ELECTRICITY\" has no energy cost. \n   **   ~~~   ** ... It is likely that the wrong resource is used. The resource should match the meter used in Utility:Tariff.\n   ** Warning ** The resource referenced by LifeCycleCost:UsePriceEscalation= \"U.S. AVG  COMMERCIAL-DISTILLATE OIL\" has no energy cost. \n   **   ~~~   ** ... It is likely that the wrong resource is used. The resource should match the meter used in Utility:Tariff.\n   ** Warning ** The resource referenced by LifeCycleCost:UsePriceEscalation= \"U.S. AVG  COMMERCIAL-RESIDUAL OIL\" has no energy cost. \n   **   ~~~   ** ... It is likely that the wrong resource is used. The resource should match the meter used in Utility:Tariff.\n   ** Warning ** The resource referenced by LifeCycleCost:UsePriceEscalation= \"U.S. AVG  COMMERCIAL-COAL\" has no energy cost. \n   **   ~~~   ** ... It is likely that the wrong resource is used. The resource should match the meter used in Utility:Tariff.\n   ************* Simulation Error Summary *************\n   ************* There are 11 unused schedules in input.\n   ************* There are 13 unused week schedules in input.\n   ************* There are 21 unused day schedules in input.\n   ************* Use Output:Diagnostics,DisplayUnusedSchedules; to see them.\n   *************\n   ************* ===== Final Error Summary =====\n   ************* The following error categories occurred.  Consider correcting or noting.\n   ************* Nominally Unused Constructions\n   ************* ..The nominally unused constructions warning is provided to alert you to potential conditions that can cause\n   ************* ..extra time during simulation. Each construction is calculated by the algorithm indicated in the HeatBalanceAlgorithm\n   ************* ..object. You may remove the constructions indicated (when you use the DisplayExtraWarnings option).\n   *************\n   ************* EnergyPlus Warmup Error Summary. During Warmup: 0 Warning; 0 Severe Errors.\n   ************* EnergyPlus Sizing Error Summary. During Sizing: 244 Warning; 0 Severe Errors.\n   ************* EnergyPlus Completed Successfully-- 254 Warning; 0 Severe Errors; Elapsed Time=00hr 05min 43.16sec\n",
  "file_format_version": "0.0.1",
  "file_paths": [
    "../weather",
    "../seeds",
    "../seed"
  ],
  "hash": "F8A21F43",
  "measure_paths": [
    "../measures"
  ],
  "name": "Alternative 1",
  "osa_id": "2bf519d3-b4a4-48ff-b4df-5617d7ba919f",
  "osd_id": "ee81f161-c654-4ef3-a5ce-95478223d891",
  "run_directory": "./run",
  "seed_file": "empty_seed.osm",
  "started_at": "20180213T191116Z",
  "steps": [
    {
      "arguments": {
        "climate_zone": "Lookup From Stat File",
        "weather_file_name": "USA_GA_Atlanta-Hartsfield-Jackson.Intl.AP.722190_TMY3.epw"
      },
      "description": "Option 1 Description: Change the building location",
      "measure_dir_name": "ChangeBuildingLocation",
      "name": "ChangeBuildingLocation Atlanta",
      "result": {
        "completed_at": "20180213T191119Z",
        "measure_class_name": "ChangeBuildingLocation",
        "measure_display_name": "ChangeBuildingLocation",
        "measure_name": "change_building_location",
        "measure_taxonomy": "Whole Building.Space Types",
        "measure_type": "ModelMeasure",
        "measure_uid": "d4db4971-f5ba-11e3-a3ac-0800200c9a66",
        "measure_version_id": "04d1e937-c0da-4e99-b815-fca47baaeac5",
        "measure_version_modified": "20170711T201203Z",
        "measure_xml_checksum": "057E8D9D",
        "started_at": "20180213T191118Z",
        "stderr": "",
        "stdout": "[OpenStudio.Measure] <0> OSArgumentVector is deprecated, use OpenStudio::Measure::OSArgumentVector instead.\n[openstudio.setFileExtension] <0> Path p, '/Users/dgoldwas/Documents/GitHub/Personal/PAT_projects/PAT_Basic_Model_Articulation/temp_data/analysis_2bf519d3-b4a4-48ff-b4df-5617d7ba919f/weather/USA_GA_Atlanta-Hartsfield-Jackson.Intl.AP.722190_TMY3.ddy', has an unexpected file extension. Was expecting 'idf'.\n[openstudio.model.YearDescription] <1> 'UseWeatherFile' is not yet a supported option for YearDescription\n[openstudio.model.YearDescription] <1> 'UseWeatherFile' is not yet a supported option for YearDescription\n",
        "step_errors": [],
        "step_files": [],
        "step_final_condition": "The final weather file is Atlanta Hartsfield Intl Ap and the model has 3 design day objects.",
        "step_info": [
          "city is Atlanta Hartsfield Intl Ap. State is GA",
          "mean dry bulb is 16.599999999999998",
          "Adding object Atlanta Hartsfield Intl Ap Ann Clg .4% Condns WB=>MDB",
          "Adding object Atlanta Hartsfield Intl Ap Ann Clg .4% Condns DB=>MWB",
          "Adding object Atlanta Hartsfield Intl Ap Ann Htg 99.6% Condns DB",
          "Setting Climate Zone to 3A"
        ],
        "step_initial_condition": "The initial weather file is Fairbanks Intl Arpt and the model has 0 design day objects",
        "step_result": "Success",
        "step_values": [
          {
            "name": "weather_file_name",
            "value": "USA_GA_Atlanta-Hartsfield-Jackson.Intl.AP.722190_TMY3.epw"
          },
          {
            "name": "climate_zone",
            "value": "Lookup From Stat File"
          }
        ],
        "step_warnings": []
      }
    },
    {
      "arguments": {
        "bar_division_method": "Multiple Space Types - Individual Stories Sliced",
        "bldg_type_a": "LargeHotel",
        "bldg_type_a_num_units": 1,
        "bldg_type_b": "SmallOffice",
        "bldg_type_b_fract_bldg_area": 0,
        "bldg_type_b_num_units": 1,
        "bldg_type_c": "SmallOffice",
        "bldg_type_c_fract_bldg_area": 0,
        "bldg_type_c_num_units": 1,
        "bldg_type_d": "SmallOffice",
        "bldg_type_d_fract_bldg_area": 0,
        "bldg_type_d_num_units": 1,
        "bottom_story_ground_exposed_floor": true,
        "building_rotation": 0,
        "floor_height": 0,
        "make_mid_story_surfaces_adiabatic": false,
        "ns_to_ew_ratio": 3,
        "num_stories_above_grade": 10,
        "num_stories_below_grade": 1,
        "party_wall_fraction": 0,
        "party_wall_stories_east": 4,
        "party_wall_stories_north": 0,
        "party_wall_stories_south": 0,
        "party_wall_stories_west": 0,
        "single_floor_area": 0,
        "story_multiplier": "Basements Ground Mid Top",
        "template": "90.1-2004",
        "top_story_exterior_exposed_roof": true,
        "total_bldg_floor_area": 100000,
        "wwr": 0
      },
      "description": "Option 1 Description: Create a core and perimeter bar sliced by space type.",
      "measure_dir_name": "create_bar_from_building_type_ratios",
      "name": "CreateBar LargeHotel",
      "result": {
        "completed_at": "20180213T191120Z",
        "measure_class_name": "CreateBarFromBuildingTypeRatios",
        "measure_display_name": "Create Bar From Building Type Ratios",
        "measure_name": "create_bar_from_building_type_ratios",
        "measure_taxonomy": "Envelope.Form",
        "measure_type": "ModelMeasure",
        "measure_uid": "6e3a14f8-c3c7-4e03-bc51-bef8a52e1a05",
        "measure_version_id": "b8a78d3b-95ad-4391-a1d0-9a3ecce1003c",
        "measure_version_modified": "20170628T205357Z",
        "measure_xml_checksum": "2AF3A68E",
        "started_at": "20180213T191119Z",
        "stderr": "",
        "stdout": "[OpenStudio.Measure] <0> OSArgumentVector is deprecated, use OpenStudio::Measure::OSArgumentVector instead.\n",
        "step_errors": [],
        "step_files": [],
        "step_final_condition": "The building finished with 69 spaces.",
        "step_info": [
          "0.0 value for floor height will be replaced with smart default for LargeHotel of 10.0.",
          "0.0 value for window to wall ratio will be replaced with smart default for LargeHotel of 0.27.",
          "Creating Space Types for LargeHotel.",
          "Intersecting surfaces, this will create additional geometry.",
          "Created Bar envlope with floor area of 100,000 (ft^2)",
          "Target party wall fraction is 0.0. Realized fraction is 0.05"
        ],
        "step_initial_condition": "The building started with 0 spaces.",
        "step_result": "Success",
        "step_values": [
          {
            "name": "bldg_type_a",
            "value": "LargeHotel"
          },
          {
            "name": "bldg_type_a_num_units",
            "value": 1
          },
          {
            "name": "bldg_type_b",
            "value": "SmallOffice"
          },
          {
            "name": "bldg_type_b_fract_bldg_area",
            "value": 0
          },
          {
            "name": "bldg_type_b_num_units",
            "value": 1
          },
          {
            "name": "bldg_type_c",
            "value": "SmallOffice"
          },
          {
            "name": "bldg_type_c_fract_bldg_area",
            "value": 0
          },
          {
            "name": "bldg_type_c_num_units",
            "value": 1
          },
          {
            "name": "bldg_type_d",
            "value": "SmallOffice"
          },
          {
            "name": "bldg_type_d_fract_bldg_area",
            "value": 0
          },
          {
            "name": "bldg_type_d_num_units",
            "value": 1
          },
          {
            "name": "single_floor_area",
            "value": 0
          },
          {
            "name": "total_bldg_floor_area",
            "value": 100000
          },
          {
            "name": "floor_height",
            "value": 0
          },
          {
            "name": "num_stories_above_grade",
            "value": 10
          },
          {
            "name": "num_stories_below_grade",
            "value": 1
          },
          {
            "name": "building_rotation",
            "value": 0
          },
          {
            "name": "template",
            "value": "90.1-2004"
          },
          {
            "name": "ns_to_ew_ratio",
            "value": 3
          },
          {
            "name": "wwr",
            "value": 0
          },
          {
            "name": "party_wall_fraction",
            "value": 0
          },
          {
            "name": "party_wall_stories_north",
            "value": 0
          },
          {
            "name": "party_wall_stories_south",
            "value": 0
          },
          {
            "name": "party_wall_stories_east",
            "value": 4
          },
          {
            "name": "party_wall_stories_west",
            "value": 0
          },
          {
            "name": "bottom_story_ground_exposed_floor",
            "value": true
          },
          {
            "name": "top_story_exterior_exposed_roof",
            "value": true
          },
          {
            "name": "story_multiplier",
            "value": "Basements Ground Mid Top"
          },
          {
            "name": "bar_division_method",
            "value": "Multiple Space Types - Individual Stories Sliced"
          },
          {
            "name": "make_mid_story_surfaces_adiabatic",
            "value": false
          },
          {
            "name": "party_wall_fraction_actual",
            "value": 0.05
          }
        ],
        "step_warnings": []
      }
    },
    {
      "arguments": {
        "add_constructions": true,
        "add_elevators": true,
        "add_exhaust": true,
        "add_exterior_lights": true,
        "add_hvac": true,
        "add_space_type_loads": true,
        "add_swh": true,
        "add_thermostat": true,
        "clg_src": "Electricity",
        "exterior_lighting_zone": "3 - All Other Areas",
        "htg_src": "NaturalGas",
        "hvac_delivery_type": "Forced Air",
        "kitchen_makeup": "Adjacent",
        "onsite_parking_fraction": 1,
        "remove_objects": true,
        "system_type": "Inferred",
        "template": "90.1-2004"
      },
      "description": "Option 1 Description: Takes a model with space and stub space types, and assigns constructions, schedules, internal loads, hvac, and other loads such as exterior lights and service water heating. The end result is somewhat like a custom protptye model with user geometry, but it may use different HVAC systems.",
      "measure_dir_name": "create_typical_building_from_model",
      "name": "CreateTypicalModel",
      "result": {
        "completed_at": "20180213T191202Z",
        "measure_class_name": "CreateTypicalBuildingFromModel",
        "measure_display_name": "Create Typical Building from Model",
        "measure_name": "create_typical_building_from_model",
        "measure_taxonomy": "Whole Building.Space Types",
        "measure_type": "ModelMeasure",
        "measure_uid": "339a2e3a-273c-4494-bb50-bfe586a0647c",
        "measure_version_id": "833d646a-1391-4e85-9083-77d64ed7c2dd",
        "measure_version_modified": "20180213T181413Z",
        "measure_xml_checksum": "EE13F09F",
        "started_at": "20180213T191120Z",
        "stderr": "",
[...]
            "units": "kBtu",
            "value": 0
          },
          {
            "name": "fuel_district_cooling",
            "units": "kBtu",
            "value": 0
          },
          {
            "name": "fuel_district_heating",
            "units": "kBtu",
            "value": 0
          },
          {
            "name": "end_use_electricity_heating",
            "units": "kWh",
            "value": 0
          },
          {
            "name": "end_use_electricity_cooling",
            "units": "kWh",
            "value": 678211.1111111111
          },
          {
            "name": "end_use_electricity_interior_lighting",
            "units": "kWh",
            "value": 336108.3333333333
          },
          {
            "name": "end_use_electricity_exterior_lighting",
            "units": "kWh",
            "value": 86613.88888888889
          },
          {
            "name": "end_use_electricity_interior_equipment",
            "units": "kWh",
            "value": 872588.8888888889
          },
          {
            "name": "end_use_electricity_exterior_equipment",
            "units": "kWh",
            "value": 0
          },
          {
            "name": "end_use_electricity_fans",
            "units": "kWh",
            "value": 307477.7777777778
          },
          {
            "name": "end_use_electricity_pumps",
            "units": "kWh",
            "value": 125533.33333333333
          },
          {
            "name": "end_use_electricity_heat_rejection",
            "units": "kWh",
            "value": 56463.88888888889
          },
          {
            "name": "end_use_electricity_humidification",
            "units": "kWh",
            "value": 0
          },
          {
            "name": "end_use_electricity_heat_recovery",
            "units": "kWh",
            "value": 0
          },
          {
            "name": "end_use_electricity_water_systems",
            "units": "kWh",
            "value": 0
          },
          {
            "name": "end_use_electricity_refrigeration",
            "units": "kWh",
            "value": 0
          },
          {
            "name": "end_use_electricity_generators",
            "units": "kWh",
            "value": 0
          },
          {
            "name": "end_use_natural_gas_heating",
            "units": "therms",
            "value": 34268.304000000004
          },
          {
            "name": "end_use_natural_gas_cooling",
            "units": "therms",
            "value": 0
          },
          {
            "name": "end_use_natural_gas_interior_lighting",
            "units": "therms",
            "value": 0
          },
          {
            "name": "end_use_natural_gas_exterior_lighting",
            "units": "therms",
            "value": 0
          },
          {
            "name": "end_use_natural_gas_interior_equipment",
            "units": "therms",
            "value": 16841.22
          },
          {
            "name": "end_use_natural_gas_exterior_equipment",
            "units": "therms",
            "value": 0
          },
          {
            "name": "end_use_natural_gas_fans",
            "units": "therms",
            "value": 0
          },
          {
            "name": "end_use_natural_gas_pumps",
            "units": "therms",
            "value": 0
          },
          {
            "name": "end_use_natural_gas_heat_rejection",
            "units": "therms",
            "value": 0
          },
          {
            "name": "end_use_natural_gas_humidification",
            "units": "therms",
            "value": 0
          },
          {
            "name": "end_use_natural_gas_heat_recovery",
            "units": "therms",
            "value": 0
          },
          {
            "name": "end_use_natural_gas_water_systems",
            "units": "therms",
            "value": 0
          },
          {
            "name": "end_use_natural_gas_refrigeration",
            "units": "therms",
            "value": 0
          },
          {
            "name": "end_use_natural_gas_generators",
            "units": "therms",
            "value": 0
          },
          {
            "name": "electricity_heating_ip",
            "units": "kWh",
            "value": 0
          },
          {
            "name": "electricity_cooling_ip",
            "units": "kWh",
            "value": 678211.7222222222
          },
          {
            "name": "electricity_interior_lighting_ip",
            "units": "kWh",
            "value": 336108.5
          },
          {
            "name": "electricity_exterior_lighting_ip",
            "units": "kWh",
            "value": 86614.47222222222
          },
          {
            "name": "electricity_interior_equipment_ip",
            "units": "kWh",
            "value": 872589.1666666666
          },
          {
            "name": "electricity_exterior_equipment_ip",
            "units": "kWh",
            "value": 0
          },
          {
            "name": "electricity_fans_ip",
            "units": "kWh",
            "value": 307477.25
          },
          {
            "name": "electricity_pumps_ip",
            "units": "kWh",
            "value": 125532.69444444445
          },
          {
            "name": "electricity_heat_rejection_ip",
            "units": "kWh",
            "value": 56463.99444444445
          },
          {
            "name": "electricity_humidification_ip",
            "units": "kWh",
            "value": 0
          },
          {
            "name": "electricity_heat_recovery_ip",
            "units": "kWh",
            "value": 0
          },
          {
            "name": "electricity_water_systems_ip",
            "units": "kWh",
            "value": 0
          },
          {
            "name": "electricity_refrigeration_ip",
            "units": "kWh",
            "value": 0
          },
          {
            "name": "electricity_generators_ip",
            "units": "kWh",
            "value": 0
          },
          {
            "name": "electricity_ip",
            "units": "kWh",
            "value": 2462997.8000000003
          },
          {
            "name": "natural_gas_heating_ip",
            "units": "MBtu",
            "value": 3426.1683786914587
          },
          {
            "name": "natural_gas_cooling_ip",
            "units": "MBtu",
            "value": 0
          },
          {
            "name": "natural_gas_interior_lighting_ip",
            "units": "MBtu",
            "value": 0
          },
          {
            "name": "natural_gas_exterior_lighting_ip",
            "units": "MBtu",
            "value": 0
          },
          {
            "name": "natural_gas_interior_equipment_ip",
            "units": "MBtu",
            "value": 1683.7980620537282
          },
          {
            "name": "natural_gas_exterior_equipment_ip",
            "units": "MBtu",
            "value": 0
          },
          {
            "name": "natural_gas_fans_ip",
            "units": "MBtu",
            "value": 0
          },
          {
            "name": "natural_gas_pumps_ip",
            "units": "MBtu",
            "value": 0
          },
          {
            "name": "natural_gas_heat_rejection_ip",
            "units": "MBtu",
            "value": 0
          },
          {
            "name": "natural_gas_humidification_ip",
            "units": "MBtu",
            "value": 0
          },
          {
            "name": "natural_gas_heat_recovery_ip",
            "units": "MBtu",
            "value": 0
          },
          {
            "name": "natural_gas_water_systems_ip",
            "units": "MBtu",
            "value": 0
          },
          {
            "name": "natural_gas_refrigeration_ip",
            "units": "MBtu",
            "value": 0
          },
          {
            "name": "natural_gas_generators_ip",
            "units": "MBtu",
            "value": 0
          },
          {
            "name": "natural_gas_ip",
            "units": "MBtu",
            "value": 5109.966440745186
          },
          {
            "name": "additional_fuel_heating_ip",
            "units": "MBtu",
            "value": 0
          },
          {
            "name": "additional_fuel_cooling_ip",
            "units": "MBtu",
            "value": 0
          },
          {
            "name": "additional_fuel_interior_lighting_ip",
            "units": "MBtu",
            "value": 0
          },
          {
            "name": "additional_fuel_exterior_lighting_ip",
            "units": "MBtu",
            "value": 0
          },
          {
            "name": "additional_fuel_interior_equipment_ip",
            "units": "MBtu",
            "value": 0
          },
          {
            "name": "additional_fuel_exterior_equipment_ip",
            "units": "MBtu",
            "value": 0
          },
          {
            "name": "additional_fuel_fans_ip",
            "units": "MBtu",
            "value": 0
          },
          {
            "name": "additional_fuel_pumps_ip",
            "units": "MBtu",
            "value": 0
          },
          {
            "name": "additional_fuel_heat_rejection_ip",
            "units": "MBtu",
            "value": 0
          },
          {
            "name": "additional_fuel_humidification_ip",
            "units": "MBtu",
            "value": 0
          },
          {
            "name": "additional_fuel_heat_recovery_ip",
            "units": "MBtu",
            "value": 0
          },
          {
            "name": "additional_fuel_water_systems_ip",
            "units": "MBtu",
            "value": 0
          },
          {
            "name": "additional_fuel_refrigeration_ip",
            "units": "MBtu",
            "value": 0
          },
          {
            "name": "additional_fuel_generators_ip",
            "units": "MBtu",
            "value": 0
          },
          {
            "name": "additional_fuel_ip",
            "units": "MBtu",
            "value": 0
          },
          {
            "name": "district_cooling_heating_ip",
            "units": "MBtu",
            "value": 0
          },
          {
            "name": "district_cooling_cooling_ip",
            "units": "MBtu",
            "value": 0
          },
          {
            "name": "district_cooling_interior_lighting_ip",
            "units": "MBtu",
            "value": 0
          },
          {
            "name": "district_cooling_exterior_lighting_ip",
            "units": "MBtu",
            "value": 0
          },
          {
            "name": "district_cooling_interior_equipment_ip",
            "units": "MBtu",
            "value": 0
          },
          {
            "name": "district_cooling_exterior_equipment_ip",
            "units": "MBtu",
            "value": 0
          },
          {
            "name": "district_cooling_fans_ip",
            "units": "MBtu",
            "value": 0
          },
          {
            "name": "district_cooling_pumps_ip",
            "units": "MBtu",
            "value": 0
          },
          {
            "name": "district_cooling_heat_rejection_ip",
            "units": "MBtu",
            "value": 0
          },
          {
            "name": "district_cooling_humidification_ip",
            "units": "MBtu",
            "value": 0
          },
          {
            "name": "district_cooling_heat_recovery_ip",
            "units": "MBtu",
            "value": 0
          },
          {
            "name": "district_cooling_water_systems_ip",
            "units": "MBtu",
            "value": 0
          },
          {
            "name": "district_cooling_refrigeration_ip",
            "units": "MBtu",
            "value": 0
          },
          {
            "name": "district_cooling_generators_ip",
            "units": "MBtu",
            "value": 0
          },
          {
            "name": "district_cooling_ip",
            "units": "MBtu",
            "value": 0
          },
          {
            "name": "district_heating_heating_ip",
            "units": "MBtu",
            "value": 0
          },
          {
            "name": "district_heating_cooling_ip",
            "units": "MBtu",
            "value": 0
          },
          {
            "name": "district_heating_interior_lighting_ip",
            "units": "MBtu",
            "value": 0
          },
          {
            "name": "district_heating_exterior_lighting_ip",
            "units": "MBtu",
            "value": 0
          },
          {
            "name": "district_heating_interior_equipment_ip",
            "units": "MBtu",
            "value": 0
          },
          {
            "name": "district_heating_exterior_equipment_ip",
            "units": "MBtu",
            "value": 0
          },
          {
            "name": "district_heating_fans_ip",
            "units": "MBtu",
            "value": 0
          },
          {
            "name": "district_heating_pumps_ip",
            "units": "MBtu",
            "value": 0
          },
          {
            "name": "district_heating_heat_rejection_ip",
            "units": "MBtu",
            "value": 0
          },
          {
            "name": "district_heating_humidification_ip",
            "units": "MBtu",
            "value": 0
          },
          {
            "name": "district_heating_heat_recovery_ip",
            "units": "MBtu",
            "value": 0
          },
          {
            "name": "district_heating_water_systems_ip",
            "units": "MBtu",
            "value": 0
          },
          {
            "name": "district_heating_refrigeration_ip",
            "units": "MBtu",
            "value": 0
          },
          {
            "name": "district_heating_generators_ip",
            "units": "MBtu",
            "value": 0
          },
          {
            "name": "district_heating_ip",
            "units": "MBtu",
            "value": 0
          },
          {
            "name": "water_heating_ip",
            "units": "MBtu",
            "value": 0
          },
          {
            "name": "water_cooling_ip",
            "units": "MBtu",
            "value": 0
          },
          {
            "name": "water_interior_lighting_ip",
            "units": "MBtu",
            "value": 0
          },
          {
            "name": "water_exterior_lighting_ip",
            "units": "MBtu",
            "value": 0
          },
          {
            "name": "water_interior_equipment_ip",
            "units": "MBtu",
            "value": 0
          },
          {
            "name": "water_exterior_equipment_ip",
            "units": "MBtu",
            "value": 0
          },
          {
            "name": "water_fans_ip",
            "units": "MBtu",
            "value": 0
          },
          {
            "name": "water_pumps_ip",
            "units": "MBtu",
            "value": 0
          },
          {
            "name": "water_heat_rejection_ip",
            "units": "MBtu",
            "value": 0
          },
          {
            "name": "water_humidification_ip",
            "units": "MBtu",
            "value": 0
          },
          {
            "name": "water_heat_recovery_ip",
            "units": "MBtu",
            "value": 0
          },
          {
            "name": "water_water_systems_ip",
            "units": "MBtu",
            "value": 0
          },
          {
            "name": "water_refrigeration_ip",
            "units": "MBtu",
            "value": 0
          },
          {
            "name": "water_generators_ip",
            "units": "MBtu",
            "value": 0
          },
          {
            "name": "water_ip",
            "units": "MBtu",
            "value": 0
          },
          {
            "name": "typical_iead_roof_r_15_87",
            "units": "ft^2",
            "value": 9090.909090909094
          },
          {
            "name": "typical_insulated_exterior_mass_wall_r_6_62",
            "units": "ft^2",
            "value": 30540.734844605267
          },
          {
            "name": "u_0_57_shgc_0_39_dbl_ref_d_clr_6_mm_6_mm_air",
            "units": "ft^2",
            "value": 11295.888230196448
          },
          {
            "name": "gross_window_wall_ratio",
            "units": "%",
            "value": 24.43
          },
          {
            "name": "gross_window_wall_ratio_conditioned",
            "units": "%",
            "value": 24.43
          },
          {
            "name": "skylight_roof_ratio",
            "units": "%",
            "value": 0
          },
          {
            "name": "space_type_large_hotel_banquet_90_1_2004",
            "units": "ft^2",
            "value": 7085.755813953498
          },
          {
            "name": "space_type_large_hotel_cafe_90_1_2004",
            "units": "ft^2",
            "value": 2010.6589147286863
          },
          {
            "name": "space_type_large_hotel_corridor_90_1_2004",
            "units": "ft^2",
            "value": 21027.131782945748
          },
          {
            "name": "space_type_large_hotel_guest_room_90_1_2004",
            "units": "ft^2",
            "value": 49648.740310077505
          },
          {
            "name": "space_type_large_hotel_kitchen_90_1_2004",
            "units": "ft^2",
            "value": 1102.2286821705436
          },
          {
            "name": "space_type_large_hotel_laundry_90_1_2004",
            "units": "ft^2",
            "value": 835.7558139534877
          },
          {
            "name": "space_type_large_hotel_lobby_90_1_2004",
            "units": "ft^2",
            "value": 13965.60077519379
          },
          {
            "name": "space_type_large_hotel_mechanical_90_1_2004",
            "units": "ft^2",
            "value": 1756.2984496124016
          },
          {
            "name": "space_type_large_hotel_retail_90_1_2004",
            "units": "ft^2",
            "value": 1550.3875968992293
          },
          {
            "name": "space_type_large_hotel_storage_90_1_2004",
            "units": "ft^2",
            "value": 1017.4418604651171
          },
          {
            "name": "exterior_lighting_total_power",
            "units": "W",
            "value": 20195.23
          },
          {
            "name": "exterior_lighting_total_consumption",
            "units": "kWh",
            "value": 3960580.5555555555
          },
          {
            "name": "large_hotel_guest_room_90_1_2004_swh",
            "units": "gal/min",
            "value": 2.4627351342708366
          },
          {
            "name": "large_hotel_kitchen_90_1_2004_swh",
            "units": "gal/min",
            "value": 2.1971884692950647
          },
          {
            "name": "large_hotel_laundry_90_1_2004_swh",
            "units": "gal/min",
            "value": 2.59681270724321
          },
          {
            "name": "inflation_approach",
            "value": "Constant Dollar"
          },
          {
            "name": "analysis_length",
            "units": "yrs",
            "value": 25
          },
          {
            "name": "annual_peak_electric_demand",
            "units": "kW",
            "value": 520.21624
          },
          {
            "name": "first_year_capital_cost",
            "units": "$",
            "value": 0
          },
          {
            "name": "annual_utility_cost",
            "units": "$",
            "value": 162078.11
          },
          {
            "name": "total_lifecycle_cost",
            "units": "$",
            "value": 2840258.75
          }
        ],
        "step_warnings": []
      }
    }
  ],
  "updated_at": "20180213T191839Z",
  "weather_file": "USA_AK_Fairbanks.Intl.AP.702610_TMY3.epw"
}