Program Version,EnergyPlus, Version 9.1.0-08d2e308bb, YMD=2019.04.09 23:03
! This file shows details about the branches, nodes, and other
! elements of the flow connections.
! This file is intended for use in "debugging" potential problems
! that may also be detected by the program, but may be more easily
! identified by "eye".
! This file is also intended to support software which draws a
! schematic diagram of the HVAC system.
! ===============================================================
! #Nodes,<Number of Unique Nodes>
 #Nodes,206
! <Node>,<NodeNumber>,<Node Name>,<Node Fluid Type>,<# Times Node Referenced After Definition>
 Node,1,CORE_BOTTOM ZN AIR TERMINAL OUTLET AIR NODE,Air,3
 Node,2,CORE_BOTTOM ZN VRF TERMINAL UNIT OUTLET AIR NODE,Air,3
 Node,3,CORE_BOTTOM ZN VRF TERMINAL UNIT INLET AIR NODE,Air,3
 Node,4,CORE_BOTTOM ZN RETURN AIR NODE,Air,2
 Node,5,CORE_MID ZN AIR TERMINAL OUTLET AIR NODE,Air,3
 Node,6,CORE_MID ZN VRF TERMINAL UNIT OUTLET AIR NODE,Air,3
 Node,7,CORE_MID ZN VRF TERMINAL UNIT INLET AIR NODE,Air,3
 Node,8,CORE_MID ZN RETURN AIR NODE,Air,2
 Node,9,CORE_TOP ZN AIR TERMINAL OUTLET AIR NODE,Air,3
 Node,10,CORE_TOP ZN VRF TERMINAL UNIT OUTLET AIR NODE,Air,3
 Node,11,CORE_TOP ZN VRF TERMINAL UNIT INLET AIR NODE,Air,3
 Node,12,CORE_TOP ZN RETURN AIR NODE,Air,2
 Node,13,PERIMETER_BOT_ZN_1 ZN AIR TERMINAL OUTLET AIR NODE,Air,3
 Node,14,PERIMETER_BOT_ZN_1 ZN VRF TERMINAL UNIT OUTLET AIR NODE,Air,3
 Node,15,PERIMETER_BOT_ZN_1 ZN VRF TERMINAL UNIT INLET AIR NODE,Air,3
 Node,16,PERIMETER_BOT_ZN_1 ZN RETURN AIR NODE,Air,2
 Node,17,PERIMETER_BOT_ZN_2 ZN AIR TERMINAL OUTLET AIR NODE,Air,3
 Node,18,PERIMETER_BOT_ZN_2 ZN VRF TERMINAL UNIT OUTLET AIR NODE,Air,3
 Node,19,PERIMETER_BOT_ZN_2 ZN VRF TERMINAL UNIT INLET AIR NODE,Air,3
 Node,20,PERIMETER_BOT_ZN_2 ZN RETURN AIR NODE,Air,2
 Node,21,PERIMETER_BOT_ZN_3 ZN AIR TERMINAL OUTLET AIR NODE,Air,3
 Node,22,PERIMETER_BOT_ZN_3 ZN VRF TERMINAL UNIT OUTLET AIR NODE,Air,3
 Node,23,PERIMETER_BOT_ZN_3 ZN VRF TERMINAL UNIT INLET AIR NODE,Air,3
 Node,24,PERIMETER_BOT_ZN_3 ZN RETURN AIR NODE,Air,2
 Node,25,PERIMETER_BOT_ZN_4 ZN AIR TERMINAL OUTLET AIR NODE,Air,3
 Node,26,PERIMETER_BOT_ZN_4 ZN VRF TERMINAL UNIT OUTLET AIR NODE,Air,3
 Node,27,PERIMETER_BOT_ZN_4 ZN VRF TERMINAL UNIT INLET AIR NODE,Air,3
 Node,28,PERIMETER_BOT_ZN_4 ZN RETURN AIR NODE,Air,2
 Node,29,PERIMETER_MID_ZN_1 ZN AIR TERMINAL OUTLET AIR NODE,Air,3
 Node,30,PERIMETER_MID_ZN_1 ZN VRF TERMINAL UNIT OUTLET AIR NODE,Air,3
 Node,31,PERIMETER_MID_ZN_1 ZN VRF TERMINAL UNIT INLET AIR NODE,Air,3
 Node,32,PERIMETER_MID_ZN_1 ZN RETURN AIR NODE,Air,2
 Node,33,PERIMETER_MID_ZN_2 ZN AIR TERMINAL OUTLET AIR NODE,Air,3
 Node,34,PERIMETER_MID_ZN_2 ZN VRF TERMINAL UNIT OUTLET AIR NODE,Air,3
 Node,35,PERIMETER_MID_ZN_2 ZN VRF TERMINAL UNIT INLET AIR NODE,Air,3
 Node,36,PERIMETER_MID_ZN_2 ZN RETURN AIR NODE,Air,2
 Node,37,PERIMETER_MID_ZN_3 ZN AIR TERMINAL OUTLET AIR NODE,Air,3
 Node,38,PERIMETER_MID_ZN_3 ZN VRF TERMINAL UNIT OUTLET AIR NODE,Air,3
 Node,39,PERIMETER_MID_ZN_3 ZN VRF TERMINAL UNIT INLET AIR NODE,Air,3
 Node,40,PERIMETER_MID_ZN_3 ZN RETURN AIR NODE,Air,2
 Node,41,PERIMETER_MID_ZN_4 ZN AIR TERMINAL OUTLET AIR NODE,Air,3
 Node,42,PERIMETER_MID_ZN_4 ZN VRF TERMINAL UNIT OUTLET AIR NODE,Air,3
 Node,43,PERIMETER_MID_ZN_4 ZN VRF TERMINAL UNIT INLET AIR NODE,Air,3
 Node,44,PERIMETER_MID_ZN_4 ZN RETURN AIR NODE,Air,2
 Node,45,PERIMETER_TOP_ZN_1 ZN AIR TERMINAL OUTLET AIR NODE,Air,3
 Node,46,PERIMETER_TOP_ZN_1 ZN VRF TERMINAL UNIT OUTLET AIR NODE,Air,3
 Node,47,PERIMETER_TOP_ZN_1 ZN VRF TERMINAL UNIT INLET AIR NODE,Air,3
 Node,48,PERIMETER_TOP_ZN_1 ZN RETURN AIR NODE,Air,2
 Node,49,PERIMETER_TOP_ZN_2 ZN AIR TERMINAL OUTLET AIR NODE,Air,3
 Node,50,PERIMETER_TOP_ZN_2 ZN VRF TERMINAL UNIT OUTLET AIR NODE,Air,3
 Node,51,PERIMETER_TOP_ZN_2 ZN VRF TERMINAL UNIT INLET AIR NODE,Air,3
 Node,52,PERIMETER_TOP_ZN_2 ZN RETURN AIR NODE,Air,2
 Node,53,PERIMETER_TOP_ZN_3 ZN AIR TERMINAL OUTLET AIR NODE,Air,3
 Node,54,PERIMETER_TOP_ZN_3 ZN VRF TERMINAL UNIT OUTLET AIR NODE,Air,3
 Node,55,PERIMETER_TOP_ZN_3 ZN VRF TERMINAL UNIT INLET AIR NODE,Air,3
 Node,56,PERIMETER_TOP_ZN_3 ZN RETURN AIR NODE,Air,2
 Node,57,PERIMETER_TOP_ZN_4 ZN AIR TERMINAL OUTLET AIR NODE,Air,3
 Node,58,PERIMETER_TOP_ZN_4 ZN VRF TERMINAL UNIT OUTLET AIR NODE,Air,3
 Node,59,PERIMETER_TOP_ZN_4 ZN VRF TERMINAL UNIT INLET AIR NODE,Air,3
 Node,60,PERIMETER_TOP_ZN_4 ZN RETURN AIR NODE,Air,2
 Node,61,5 ZONE DOAS SUPPLY OUTLET NODE,Air,16
 Node,62,5 ZONE DOAS DEMAND INLET NODE,Air,3
 Node,63,5 ZONE DOAS 1 SUPPLY OUTLET NODE,Air,16
 Node,64,5 ZONE DOAS 1 DEMAND INLET NODE,Air,3
 Node,65,5 ZONE DOAS 2 SUPPLY OUTLET NODE,Air,16
 Node,66,5 ZONE DOAS 2 DEMAND INLET NODE,Air,3
 Node,67,5 ZONE DOAS SUPPLY INLET NODE,Air,2
 Node,68,DOAS EXHAUST FAN OUTLET AIR NODE,Air,5
 Node,69,5 ZONE DOAS MIXED AIR NODE,Air,6
 Node,70,5 ZONE DOAS 2SPD DX CLG COIL OUTLET AIR NODE,Air,6
 Node,71,5 ZONE DOAS HTG COIL OUTLET AIR NODE,Air,4
 Node,72,5 ZONE DOAS BACKUP HTG COIL OUTLET AIR NODE,Air,11
 Node,73,5 ZONE DOAS 1 SUPPLY INLET NODE,Air,2
 Node,74,DOAS EXHAUST FAN 1 OUTLET AIR NODE,Air,5
 Node,75,5 ZONE DOAS 1 MIXED AIR NODE,Air,6
 Node,76,5 ZONE DOAS 1 2SPD DX CLG COIL OUTLET AIR NODE,Air,6
 Node,77,5 ZONE DOAS 1 HTG COIL OUTLET AIR NODE,Air,4
 Node,78,5 ZONE DOAS 1 BACKUP HTG COIL OUTLET AIR NODE,Air,11
 Node,79,5 ZONE DOAS 2 SUPPLY INLET NODE,Air,2
 Node,80,DOAS EXHAUST FAN 2 OUTLET AIR NODE,Air,5
 Node,81,5 ZONE DOAS 2 MIXED AIR NODE,Air,6
 Node,82,5 ZONE DOAS 2 2SPD DX CLG COIL OUTLET AIR NODE,Air,6
 Node,83,5 ZONE DOAS 2 HTG COIL OUTLET AIR NODE,Air,4
 Node,84,5 ZONE DOAS 2 BACKUP HTG COIL OUTLET AIR NODE,Air,11
 Node,85,MAIN SERVICE WATER LOOP SUPPLY INLET NODE,Water,2
 Node,86,SERVICE WATER LOOP PUMP OUTLET WATER NODE,Water,1
 Node,87,100GAL NATURAL GAS WATER HEATER - 100KBTU/HR 0.802 THERM EFF SUPPLY INLET WATER NODE,Water,1
 Node,88,100GAL NATURAL GAS WATER HEATER - 100KBTU/HR 0.802 THERM EFF SUPPLY OUTLET WATER NODE,Water,1
 Node,89,PIPE ADIABATIC 1 INLET WATER NODE,Water,1
 Node,90,PIPE ADIABATIC 1 OUTLET WATER NODE,Water,1
 Node,91,PIPE ADIABATIC 3 INLET WATER NODE,Water,1
 Node,92,MAIN SERVICE WATER LOOP SUPPLY OUTLET NODE,Water,4
 Node,93,MAIN SERVICE WATER LOOP DEMAND INLET NODE,Water,2
 Node,94,PIPE ADIABATIC 4 OUTLET WATER NODE,Water,1
 Node,95,PIPE ADIABATIC 2 INLET WATER NODE,Water,1
 Node,96,PIPE ADIABATIC 2 OUTLET WATER NODE,Water,1
 Node,97,WATER USE CONNECTIONS 1 INLET WATER NODE,Water,1
 Node,98,WATER USE CONNECTIONS 1 OUTLET WATER NODE,Water,1
 Node,99,WATER USE CONNECTIONS 2 INLET WATER NODE,Water,1
 Node,100,WATER USE CONNECTIONS 2 OUTLET WATER NODE,Water,1
 Node,101,WATER USE CONNECTIONS 3 INLET WATER NODE,Water,1
 Node,102,WATER USE CONNECTIONS 3 OUTLET WATER NODE,Water,1
 Node,103,WATER USE CONNECTIONS 4 INLET WATER NODE,Water,1
 Node,104,WATER USE CONNECTIONS 4 OUTLET WATER NODE,Water,1
 Node,105,WATER USE CONNECTIONS 5 INLET WATER NODE,Water,1
 Node,106,WATER USE CONNECTIONS 5 OUTLET WATER NODE,Water,1
 Node,107,WATER USE CONNECTIONS 6 INLET WATER NODE,Water,1
 Node,108,WATER USE CONNECTIONS 6 OUTLET WATER NODE,Water,1
 Node,109,WATER USE CONNECTIONS 7 INLET WATER NODE,Water,1
 Node,110,WATER USE CONNECTIONS 7 OUTLET WATER NODE,Water,1
 Node,111,WATER USE CONNECTIONS 8 INLET WATER NODE,Water,1
 Node,112,WATER USE CONNECTIONS 8 OUTLET WATER NODE,Water,1
 Node,113,WATER USE CONNECTIONS 9 INLET WATER NODE,Water,1
 Node,114,WATER USE CONNECTIONS 9 OUTLET WATER NODE,Water,1
 Node,115,WATER USE CONNECTIONS 10 INLET WATER NODE,Water,1
 Node,116,WATER USE CONNECTIONS 10 OUTLET WATER NODE,Water,1
 Node,117,WATER USE CONNECTIONS 11 INLET WATER NODE,Water,1
 Node,118,WATER USE CONNECTIONS 11 OUTLET WATER NODE,Water,1
 Node,119,WATER USE CONNECTIONS 12 INLET WATER NODE,Water,1
 Node,120,WATER USE CONNECTIONS 12 OUTLET WATER NODE,Water,1
 Node,121,WATER USE CONNECTIONS 13 INLET WATER NODE,Water,1
 Node,122,WATER USE CONNECTIONS 13 OUTLET WATER NODE,Water,1
 Node,123,WATER USE CONNECTIONS 14 INLET WATER NODE,Water,1
 Node,124,WATER USE CONNECTIONS 14 OUTLET WATER NODE,Water,1
 Node,125,WATER USE CONNECTIONS 15 INLET WATER NODE,Water,1
 Node,126,WATER USE CONNECTIONS 15 OUTLET WATER NODE,Water,1
 Node,127,MAIN SERVICE WATER LOOP DEMAND BYPASS PIPE INLET NODE,Water,1
 Node,128,MAIN SERVICE WATER LOOP DEMAND BYPASS PIPE OUTLET NODE,Water,1
 Node,129,PIPE ADIABATIC 5 INLET WATER NODE,Water,1
 Node,130,MAIN SERVICE WATER LOOP DEMAND OUTLET NODE,Water,2
 Node,131,CORE_BOTTOM ZN ZONE AIR NODE,Air,0
 Node,132,CORE_MID ZN ZONE AIR NODE,Air,0
 Node,133,CORE_TOP ZN ZONE AIR NODE,Air,0
 Node,134,PERIMETER_BOT_ZN_1 ZN ZONE AIR NODE,Air,0
 Node,135,PERIMETER_BOT_ZN_2 ZN ZONE AIR NODE,Air,0
 Node,136,PERIMETER_BOT_ZN_3 ZN ZONE AIR NODE,Air,0
 Node,137,PERIMETER_BOT_ZN_4 ZN ZONE AIR NODE,Air,0
 Node,138,PERIMETER_MID_ZN_1 ZN ZONE AIR NODE,Air,0
 Node,139,PERIMETER_MID_ZN_2 ZN ZONE AIR NODE,Air,0
 Node,140,PERIMETER_MID_ZN_3 ZN ZONE AIR NODE,Air,0
 Node,141,PERIMETER_MID_ZN_4 ZN ZONE AIR NODE,Air,0
 Node,142,PERIMETER_TOP_ZN_1 ZN ZONE AIR NODE,Air,0
 Node,143,PERIMETER_TOP_ZN_2 ZN ZONE AIR NODE,Air,0
 Node,144,PERIMETER_TOP_ZN_3 ZN ZONE AIR NODE,Air,0
 Node,145,PERIMETER_TOP_ZN_4 ZN ZONE AIR NODE,Air,0
 Node,146,5 ZONE DOAS DEMAND OUTLET NODE,Air,2
 Node,147,5 ZONE DOAS 1 DEMAND OUTLET NODE,Air,2
 Node,148,5 ZONE DOAS 2 DEMAND OUTLET NODE,Air,2
 Node,149,5 ZONE DOAS OUTDOOR AIR NODE,Air,2
 Node,150,5 ZONE DOAS 1 OUTDOOR AIR NODE,Air,2
 Node,151,5 ZONE DOAS 2 OUTDOOR AIR NODE,Air,2
 Node,152,MODEL OUTDOOR AIR NODE,Air,0
 Node,153,5 ZONE DOAS HEAT EXCHANGER PRIMARY OUTLET AIR NODE,Air,2
 Node,154,5 ZONE DOAS 1 HEAT EXCHANGER PRIMARY OUTLET AIR NODE,Air,2
 Node,155,5 ZONE DOAS 2 HEAT EXCHANGER PRIMARY OUTLET AIR NODE,Air,2
 Node,156,PERIMETER_BOT_ZN_3 ZN AIR TERMINAL INLET AIR NODE,Air,1
 Node,157,PERIMETER_BOT_ZN_4 ZN AIR TERMINAL INLET AIR NODE,Air,1
 Node,158,PERIMETER_BOT_ZN_2 ZN AIR TERMINAL INLET AIR NODE,Air,1
 Node,159,PERIMETER_BOT_ZN_1 ZN AIR TERMINAL INLET AIR NODE,Air,1
 Node,160,CORE_BOTTOM ZN AIR TERMINAL INLET AIR NODE,Air,1
 Node,161,PERIMETER_MID_ZN_4 ZN AIR TERMINAL INLET AIR NODE,Air,1
 Node,162,PERIMETER_MID_ZN_2 ZN AIR TERMINAL INLET AIR NODE,Air,1
 Node,163,PERIMETER_MID_ZN_3 ZN AIR TERMINAL INLET AIR NODE,Air,1
 Node,164,PERIMETER_MID_ZN_1 ZN AIR TERMINAL INLET AIR NODE,Air,1
 Node,165,CORE_MID ZN AIR TERMINAL INLET AIR NODE,Air,1
 Node,166,PERIMETER_TOP_ZN_4 ZN AIR TERMINAL INLET AIR NODE,Air,1
 Node,167,PERIMETER_TOP_ZN_2 ZN AIR TERMINAL INLET AIR NODE,Air,1
 Node,168,PERIMETER_TOP_ZN_3 ZN AIR TERMINAL INLET AIR NODE,Air,1
 Node,169,PERIMETER_TOP_ZN_1 ZN AIR TERMINAL INLET AIR NODE,Air,1
 Node,170,CORE_TOP ZN AIR TERMINAL INLET AIR NODE,Air,1
 Node,171,CORE_BOTTOM ZN VRF TERMINAL UNIT HEATING COIL OUTLET NODE,Air,1
 Node,172,CORE_MID ZN VRF TERMINAL UNIT HEATING COIL OUTLET NODE,Air,1
 Node,173,CORE_TOP ZN VRF TERMINAL UNIT HEATING COIL OUTLET NODE,Air,1
 Node,174,PERIMETER_BOT_ZN_1 ZN VRF TERMINAL UNIT HEATING COIL OUTLET NODE,Air,1
 Node,175,PERIMETER_BOT_ZN_2 ZN VRF TERMINAL UNIT HEATING COIL OUTLET NODE,Air,1
 Node,176,PERIMETER_BOT_ZN_3 ZN VRF TERMINAL UNIT HEATING COIL OUTLET NODE,Air,1
 Node,177,PERIMETER_BOT_ZN_4 ZN VRF TERMINAL UNIT HEATING COIL OUTLET NODE,Air,1
 Node,178,PERIMETER_MID_ZN_1 ZN VRF TERMINAL UNIT HEATING COIL OUTLET NODE,Air,1
 Node,179,PERIMETER_MID_ZN_2 ZN VRF TERMINAL UNIT HEATING COIL OUTLET NODE,Air,1
 Node,180,PERIMETER_MID_ZN_3 ZN VRF TERMINAL UNIT HEATING COIL OUTLET NODE,Air,1
 Node,181,PERIMETER_MID_ZN_4 ZN VRF TERMINAL UNIT HEATING COIL OUTLET NODE,Air,1
 Node,182,PERIMETER_TOP_ZN_1 ZN VRF TERMINAL UNIT HEATING COIL OUTLET NODE,Air,1
 Node,183,PERIMETER_TOP_ZN_2 ZN VRF TERMINAL UNIT HEATING COIL OUTLET NODE,Air,1
 Node,184,PERIMETER_TOP_ZN_3 ZN VRF TERMINAL UNIT HEATING COIL OUTLET NODE,Air,1
 Node,185,PERIMETER_TOP_ZN_4 ZN VRF TERMINAL UNIT HEATING COIL OUTLET NODE,Air,1
 Node,186,CORE_BOTTOM ZN VRF TERMINAL UNIT COOLING COIL OUTLET NODE,Air,1
 Node,187,CORE_MID ZN VRF TERMINAL UNIT COOLING COIL OUTLET NODE,Air,1
 Node,188,CORE_TOP ZN VRF TERMINAL UNIT COOLING COIL OUTLET NODE,Air,1
 Node,189,PERIMETER_BOT_ZN_1 ZN VRF TERMINAL UNIT COOLING COIL OUTLET NODE,Air,1
 Node,190,PERIMETER_BOT_ZN_2 ZN VRF TERMINAL UNIT COOLING COIL OUTLET NODE,Air,1
 Node,191,PERIMETER_BOT_ZN_3 ZN VRF TERMINAL UNIT COOLING COIL OUTLET NODE,Air,1
 Node,192,PERIMETER_BOT_ZN_4 ZN VRF TERMINAL UNIT COOLING COIL OUTLET NODE,Air,1
 Node,193,PERIMETER_MID_ZN_1 ZN VRF TERMINAL UNIT COOLING COIL OUTLET NODE,Air,1
 Node,194,PERIMETER_MID_ZN_2 ZN VRF TERMINAL UNIT COOLING COIL OUTLET NODE,Air,1
 Node,195,PERIMETER_MID_ZN_3 ZN VRF TERMINAL UNIT COOLING COIL OUTLET NODE,Air,1
 Node,196,PERIMETER_MID_ZN_4 ZN VRF TERMINAL UNIT COOLING COIL OUTLET NODE,Air,1
 Node,197,PERIMETER_TOP_ZN_1 ZN VRF TERMINAL UNIT COOLING COIL OUTLET NODE,Air,1
 Node,198,PERIMETER_TOP_ZN_2 ZN VRF TERMINAL UNIT COOLING COIL OUTLET NODE,Air,1
 Node,199,PERIMETER_TOP_ZN_3 ZN VRF TERMINAL UNIT COOLING COIL OUTLET NODE,Air,1
 Node,200,PERIMETER_TOP_ZN_4 ZN VRF TERMINAL UNIT COOLING COIL OUTLET NODE,Air,1
 Node,201,5 ZONE DOAS HEAT EXCHANGER SECONDARY INLET AIR NODE,Air,2
 Node,202,5 ZONE DOAS 1 HEAT EXCHANGER SECONDARY INLET AIR NODE,Air,2
 Node,203,5 ZONE DOAS 2 HEAT EXCHANGER SECONDARY INLET AIR NODE,Air,2
 Node,204,5 ZONE DOAS RELIEF AIR NODE,Air,0
 Node,205,5 ZONE DOAS 1 RELIEF AIR NODE,Air,0
 Node,206,5 ZONE DOAS 2 RELIEF AIR NODE,Air,0
! ===============================================================
! Suspicious nodes have 0 references.  It is normal for some nodes, however.
! Listing nodes with 0 references (culled from previous list):
! <Suspicious Node>,<NodeNumber>,<Node Name>,<Node Fluid Type>,<# Times Node Referenced After Definition>
 Suspicious Node,131,CORE_BOTTOM ZN ZONE AIR NODE,Air,0
 Suspicious Node,132,CORE_MID ZN ZONE AIR NODE,Air,0
 Suspicious Node,133,CORE_TOP ZN ZONE AIR NODE,Air,0
 Suspicious Node,134,PERIMETER_BOT_ZN_1 ZN ZONE AIR NODE,Air,0
 Suspicious Node,135,PERIMETER_BOT_ZN_2 ZN ZONE AIR NODE,Air,0
 Suspicious Node,136,PERIMETER_BOT_ZN_3 ZN ZONE AIR NODE,Air,0
 Suspicious Node,137,PERIMETER_BOT_ZN_4 ZN ZONE AIR NODE,Air,0
 Suspicious Node,138,PERIMETER_MID_ZN_1 ZN ZONE AIR NODE,Air,0
 Suspicious Node,139,PERIMETER_MID_ZN_2 ZN ZONE AIR NODE,Air,0
 Suspicious Node,140,PERIMETER_MID_ZN_3 ZN ZONE AIR NODE,Air,0
 Suspicious Node,141,PERIMETER_MID_ZN_4 ZN ZONE AIR NODE,Air,0
 Suspicious Node,142,PERIMETER_TOP_ZN_1 ZN ZONE AIR NODE,Air,0
 Suspicious Node,143,PERIMETER_TOP_ZN_2 ZN ZONE AIR NODE,Air,0
 Suspicious Node,144,PERIMETER_TOP_ZN_3 ZN ZONE AIR NODE,Air,0
 Suspicious Node,145,PERIMETER_TOP_ZN_4 ZN ZONE AIR NODE,Air,0
 Suspicious Node,152,MODEL OUTDOOR AIR NODE,Air,0
 Suspicious Node,204,5 ZONE DOAS RELIEF AIR NODE,Air,0
 Suspicious Node,205,5 ZONE DOAS 1 RELIEF AIR NODE,Air,0
 Suspicious Node,206,5 ZONE DOAS 2 RELIEF AIR NODE,Air,0
! ===============================================================
! <#Branch Lists>,<Number of Branch Lists>
 #Branch Lists,5
! <Branch List>,<Branch List Count>,<Branch List Name>,<Loop Name>,<Loop Type>,<Number of Branches>
! <Branch>,<Branch Count>,<Branch Name>,<Loop Name>,<Loop Type>,<Branch Inlet Node Name>,<Branch Outlet Node Name>
 Branch List,1,5 ZONE DOAS SUPPLY BRANCHES,5 ZONE DOAS,Air,1
   Branch,1,5 ZONE DOAS MAIN BRANCH,5 ZONE DOAS,Air,5 ZONE DOAS SUPPLY INLET NODE,5 ZONE DOAS SUPPLY OUTLET NODE
 Branch List,2,5 ZONE DOAS 1 SUPPLY BRANCHES,5 ZONE DOAS 1,Air,1
   Branch,1,5 ZONE DOAS 1 MAIN BRANCH,5 ZONE DOAS 1,Air,5 ZONE DOAS 1 SUPPLY INLET NODE,5 ZONE DOAS 1 SUPPLY OUTLET NODE
 Branch List,3,5 ZONE DOAS 2 SUPPLY BRANCHES,5 ZONE DOAS 2,Air,1
   Branch,1,5 ZONE DOAS 2 MAIN BRANCH,5 ZONE DOAS 2,Air,5 ZONE DOAS 2 SUPPLY INLET NODE,5 ZONE DOAS 2 SUPPLY OUTLET NODE
 Branch List,4,MAIN SERVICE WATER LOOP SUPPLY BRANCHES,MAIN SERVICE WATER LOOP,Plant Supply,4
   Branch,1,MAIN SERVICE WATER LOOP SUPPLY INLET BRANCH,MAIN SERVICE WATER LOOP,Plant Supply,MAIN SERVICE WATER LOOP SUPPLY INLET NODE,SERVICE WATER LOOP PUMP OUTLET WATER NODE
   Branch,2,MAIN SERVICE WATER LOOP SUPPLY BRANCH 1,MAIN SERVICE WATER LOOP,Plant Supply,100GAL NATURAL GAS WATER HEATER - 100KBTU/HR 0.802 THERM EFF SUPPLY INLET WATER NODE,100GAL NATURAL GAS WATER HEATER - 100KBTU/HR 0.802 THERM EFF SUPPLY OUTLET WATER NODE
   Branch,3,MAIN SERVICE WATER LOOP SUPPLY BRANCH 2,MAIN SERVICE WATER LOOP,Plant Supply,PIPE ADIABATIC 1 INLET WATER NODE,PIPE ADIABATIC 1 OUTLET WATER NODE
   Branch,4,MAIN SERVICE WATER LOOP SUPPLY OUTLET BRANCH,MAIN SERVICE WATER LOOP,Plant Supply,PIPE ADIABATIC 3 INLET WATER NODE,MAIN SERVICE WATER LOOP SUPPLY OUTLET NODE
 Branch List,5,MAIN SERVICE WATER LOOP DEMAND BRANCHES,MAIN SERVICE WATER LOOP,Plant Demand,19
   Branch,1,MAIN SERVICE WATER LOOP DEMAND INLET BRANCH,MAIN SERVICE WATER LOOP,Plant Demand,MAIN SERVICE WATER LOOP DEMAND INLET NODE,PIPE ADIABATIC 4 OUTLET WATER NODE
   Branch,2,MAIN SERVICE WATER LOOP DEMAND BRANCH 1,MAIN SERVICE WATER LOOP,Plant Demand,PIPE ADIABATIC 2 INLET WATER NODE,PIPE ADIABATIC 2 OUTLET WATER NODE
   Branch,3,MAIN SERVICE WATER LOOP DEMAND BRANCH 2,MAIN SERVICE WATER LOOP,Plant Demand,WATER USE CONNECTIONS 1 INLET WATER NODE,WATER USE CONNECTIONS 1 OUTLET WATER NODE
   Branch,4,MAIN SERVICE WATER LOOP DEMAND BRANCH 3,MAIN SERVICE WATER LOOP,Plant Demand,WATER USE CONNECTIONS 2 INLET WATER NODE,WATER USE CONNECTIONS 2 OUTLET WATER NODE
   Branch,5,MAIN SERVICE WATER LOOP DEMAND BRANCH 4,MAIN SERVICE WATER LOOP,Plant Demand,WATER USE CONNECTIONS 3 INLET WATER NODE,WATER USE CONNECTIONS 3 OUTLET WATER NODE
   Branch,6,MAIN SERVICE WATER LOOP DEMAND BRANCH 5,MAIN SERVICE WATER LOOP,Plant Demand,WATER USE CONNECTIONS 4 INLET WATER NODE,WATER USE CONNECTIONS 4 OUTLET WATER NODE
   Branch,7,MAIN SERVICE WATER LOOP DEMAND BRANCH 6,MAIN SERVICE WATER LOOP,Plant Demand,WATER USE CONNECTIONS 5 INLET WATER NODE,WATER USE CONNECTIONS 5 OUTLET WATER NODE
   Branch,8,MAIN SERVICE WATER LOOP DEMAND BRANCH 7,MAIN SERVICE WATER LOOP,Plant Demand,WATER USE CONNECTIONS 6 INLET WATER NODE,WATER USE CONNECTIONS 6 OUTLET WATER NODE
   Branch,9,MAIN SERVICE WATER LOOP DEMAND BRANCH 8,MAIN SERVICE WATER LOOP,Plant Demand,WATER USE CONNECTIONS 7 INLET WATER NODE,WATER USE CONNECTIONS 7 OUTLET WATER NODE
   Branch,10,MAIN SERVICE WATER LOOP DEMAND BRANCH 9,MAIN SERVICE WATER LOOP,Plant Demand,WATER USE CONNECTIONS 8 INLET WATER NODE,WATER USE CONNECTIONS 8 OUTLET WATER NODE
   Branch,11,MAIN SERVICE WATER LOOP DEMAND BRANCH 10,MAIN SERVICE WATER LOOP,Plant Demand,WATER USE CONNECTIONS 9 INLET WATER NODE,WATER USE CONNECTIONS 9 OUTLET WATER NODE
   Branch,12,MAIN SERVICE WATER LOOP DEMAND BRANCH 11,MAIN SERVICE WATER LOOP,Plant Demand,WATER USE CONNECTIONS 10 INLET WATER NODE,WATER USE CONNECTIONS 10 OUTLET WATER NODE
   Branch,13,MAIN SERVICE WATER LOOP DEMAND BRANCH 12,MAIN SERVICE WATER LOOP,Plant Demand,WATER USE CONNECTIONS 11 INLET WATER NODE,WATER USE CONNECTIONS 11 OUTLET WATER NODE
   Branch,14,MAIN SERVICE WATER LOOP DEMAND BRANCH 13,MAIN SERVICE WATER LOOP,Plant Demand,WATER USE CONNECTIONS 12 INLET WATER NODE,WATER USE CONNECTIONS 12 OUTLET WATER NODE
   Branch,15,MAIN SERVICE WATER LOOP DEMAND BRANCH 14,MAIN SERVICE WATER LOOP,Plant Demand,WATER USE CONNECTIONS 13 INLET WATER NODE,WATER USE CONNECTIONS 13 OUTLET WATER NODE
   Branch,16,MAIN SERVICE WATER LOOP DEMAND BRANCH 15,MAIN SERVICE WATER LOOP,Plant Demand,WATER USE CONNECTIONS 14 INLET WATER NODE,WATER USE CONNECTIONS 14 OUTLET WATER NODE
   Branch,17,MAIN SERVICE WATER LOOP DEMAND BRANCH 16,MAIN SERVICE WATER LOOP,Plant Demand,WATER USE CONNECTIONS 15 INLET WATER NODE,WATER USE CONNECTIONS 15 OUTLET WATER NODE
   Branch,18,MAIN SERVICE WATER LOOP DEMAND BYPASS BRANCH,MAIN SERVICE WATER LOOP,Plant Demand,MAIN SERVICE WATER LOOP DEMAND BYPASS PIPE INLET NODE,MAIN SERVICE WATER LOOP DEMAND BYPASS PIPE OUTLET NODE
   Branch,19,MAIN SERVICE WATER LOOP DEMAND OUTLET BRANCH,MAIN SERVICE WATER LOOP,Plant Demand,PIPE ADIABATIC 5 INLET WATER NODE,MAIN SERVICE WATER LOOP DEMAND OUTLET NODE
! ===============================================================
! <#Supply Air Paths>,<Number of Supply Air Paths>
 #Supply Air Paths,3
! <Supply Air Path>,<Supply Air Path Count>,<Supply Air Path Name>,<AirLoopHVAC Name>
! <#Components on Supply Air Path>,<Number of Components>
! <Supply Air Path Component>,<Component Count>,<Component Type>,<Component Name>,<AirLoopHVAC Name>
! <#Outlet Nodes on Supply Air Path Component>,<Number of Nodes>
! <Supply Air Path Component Nodes>,<Node Count>,<Component Type>,<Component Name>,<Inlet Node Name>,<Outlet Node Name>,<AirLoopHVAC Name>
 Supply Air Path,1,5 ZONE DOAS 5 ZONE DOAS DEMAND INLET NODE SUPPLY PATH,5 ZONE DOAS
   #Components on Supply Air Path,1
   Supply Air Path Component,1,AIRLOOPHVAC:ZONESPLITTER,AIR LOOP HVAC ZONE SPLITTER 1,5 ZONE DOAS
     #Outlet Nodes on Supply Air Path Component,5
     Supply Air Path Component Nodes,1,AIRLOOPHVAC:ZONESPLITTER,AIR LOOP HVAC ZONE SPLITTER 1,5 ZONE DOAS DEMAND INLET NODE,PERIMETER_BOT_ZN_3 ZN AIR TERMINAL INLET AIR NODE,5 ZONE DOAS
     Supply Air Path Component Nodes,2,AIRLOOPHVAC:ZONESPLITTER,AIR LOOP HVAC ZONE SPLITTER 1,5 ZONE DOAS DEMAND INLET NODE,PERIMETER_BOT_ZN_4 ZN AIR TERMINAL INLET AIR NODE,5 ZONE DOAS
     Supply Air Path Component Nodes,3,AIRLOOPHVAC:ZONESPLITTER,AIR LOOP HVAC ZONE SPLITTER 1,5 ZONE DOAS DEMAND INLET NODE,PERIMETER_BOT_ZN_2 ZN AIR TERMINAL INLET AIR NODE,5 ZONE DOAS
     Supply Air Path Component Nodes,4,AIRLOOPHVAC:ZONESPLITTER,AIR LOOP HVAC ZONE SPLITTER 1,5 ZONE DOAS DEMAND INLET NODE,PERIMETER_BOT_ZN_1 ZN AIR TERMINAL INLET AIR NODE,5 ZONE DOAS
     Supply Air Path Component Nodes,5,AIRLOOPHVAC:ZONESPLITTER,AIR LOOP HVAC ZONE SPLITTER 1,5 ZONE DOAS DEMAND INLET NODE,CORE_BOTTOM ZN AIR TERMINAL INLET AIR NODE,5 ZONE DOAS
! <#Nodes on Supply Air Path>,<Number of Nodes>
! <Supply Air Path Node>,<Node Type>,<Node Count>,<Node Name>,<AirLoopHVAC Name>
#Nodes on Supply Air Path,6
   Supply Air Path Node,Inlet Node,1,5 ZONE DOAS DEMAND INLET NODE,5 ZONE DOAS
   Supply Air Path Node,Outlet Node,2,PERIMETER_BOT_ZN_3 ZN AIR TERMINAL INLET AIR NODE,5 ZONE DOAS
   Supply Air Path Node,Outlet Node,3,PERIMETER_BOT_ZN_4 ZN AIR TERMINAL INLET AIR NODE,5 ZONE DOAS
   Supply Air Path Node,Outlet Node,4,PERIMETER_BOT_ZN_2 ZN AIR TERMINAL INLET AIR NODE,5 ZONE DOAS
   Supply Air Path Node,Outlet Node,5,PERIMETER_BOT_ZN_1 ZN AIR TERMINAL INLET AIR NODE,5 ZONE DOAS
   Supply Air Path Node,Outlet Node,6,CORE_BOTTOM ZN AIR TERMINAL INLET AIR NODE,5 ZONE DOAS
 Supply Air Path,2,5 ZONE DOAS 1 5 ZONE DOAS 1 DEMAND INLET NODE SUPPLY PATH,5 ZONE DOAS 1
   #Components on Supply Air Path,1
   Supply Air Path Component,1,AIRLOOPHVAC:ZONESPLITTER,AIR LOOP HVAC ZONE SPLITTER 2,5 ZONE DOAS 1
     #Outlet Nodes on Supply Air Path Component,5
     Supply Air Path Component Nodes,1,AIRLOOPHVAC:ZONESPLITTER,AIR LOOP HVAC ZONE SPLITTER 2,5 ZONE DOAS 1 DEMAND INLET NODE,PERIMETER_MID_ZN_4 ZN AIR TERMINAL INLET AIR NODE,5 ZONE DOAS 1
     Supply Air Path Component Nodes,2,AIRLOOPHVAC:ZONESPLITTER,AIR LOOP HVAC ZONE SPLITTER 2,5 ZONE DOAS 1 DEMAND INLET NODE,PERIMETER_MID_ZN_2 ZN AIR TERMINAL INLET AIR NODE,5 ZONE DOAS 1
     Supply Air Path Component Nodes,3,AIRLOOPHVAC:ZONESPLITTER,AIR LOOP HVAC ZONE SPLITTER 2,5 ZONE DOAS 1 DEMAND INLET NODE,PERIMETER_MID_ZN_3 ZN AIR TERMINAL INLET AIR NODE,5 ZONE DOAS 1
     Supply Air Path Component Nodes,4,AIRLOOPHVAC:ZONESPLITTER,AIR LOOP HVAC ZONE SPLITTER 2,5 ZONE DOAS 1 DEMAND INLET NODE,PERIMETER_MID_ZN_1 ZN AIR TERMINAL INLET AIR NODE,5 ZONE DOAS 1
     Supply Air Path Component Nodes,5,AIRLOOPHVAC:ZONESPLITTER,AIR LOOP HVAC ZONE SPLITTER 2,5 ZONE DOAS 1 DEMAND INLET NODE,CORE_MID ZN AIR TERMINAL INLET AIR NODE,5 ZONE DOAS 1
! <#Nodes on Supply Air Path>,<Number of Nodes>
! <Supply Air Path Node>,<Node Type>,<Node Count>,<Node Name>,<AirLoopHVAC Name>
#Nodes on Supply Air Path,6
   Supply Air Path Node,Inlet Node,1,5 ZONE DOAS 1 DEMAND INLET NODE,5 ZONE DOAS 1
   Supply Air Path Node,Outlet Node,2,PERIMETER_MID_ZN_4 ZN AIR TERMINAL INLET AIR NODE,5 ZONE DOAS 1
   Supply Air Path Node,Outlet Node,3,PERIMETER_MID_ZN_2 ZN AIR TERMINAL INLET AIR NODE,5 ZONE DOAS 1
   Supply Air Path Node,Outlet Node,4,PERIMETER_MID_ZN_3 ZN AIR TERMINAL INLET AIR NODE,5 ZONE DOAS 1
   Supply Air Path Node,Outlet Node,5,PERIMETER_MID_ZN_1 ZN AIR TERMINAL INLET AIR NODE,5 ZONE DOAS 1
   Supply Air Path Node,Outlet Node,6,CORE_MID ZN AIR TERMINAL INLET AIR NODE,5 ZONE DOAS 1
 Supply Air Path,3,5 ZONE DOAS 2 5 ZONE DOAS 2 DEMAND INLET NODE SUPPLY PATH,5 ZONE DOAS 2
   #Components on Supply Air Path,1
   Supply Air Path Component,1,AIRLOOPHVAC:ZONESPLITTER,AIR LOOP HVAC ZONE SPLITTER 3,5 ZONE DOAS 2
     #Outlet Nodes on Supply Air Path Component,5
     Supply Air Path Component Nodes,1,AIRLOOPHVAC:ZONESPLITTER,AIR LOOP HVAC ZONE SPLITTER 3,5 ZONE DOAS 2 DEMAND INLET NODE,PERIMETER_TOP_ZN_4 ZN AIR TERMINAL INLET AIR NODE,5 ZONE DOAS 2
     Supply Air Path Component Nodes,2,AIRLOOPHVAC:ZONESPLITTER,AIR LOOP HVAC ZONE SPLITTER 3,5 ZONE DOAS 2 DEMAND INLET NODE,PERIMETER_TOP_ZN_2 ZN AIR TERMINAL INLET AIR NODE,5 ZONE DOAS 2
     Supply Air Path Component Nodes,3,AIRLOOPHVAC:ZONESPLITTER,AIR LOOP HVAC ZONE SPLITTER 3,5 ZONE DOAS 2 DEMAND INLET NODE,PERIMETER_TOP_ZN_3 ZN AIR TERMINAL INLET AIR NODE,5 ZONE DOAS 2
     Supply Air Path Component Nodes,4,AIRLOOPHVAC:ZONESPLITTER,AIR LOOP HVAC ZONE SPLITTER 3,5 ZONE DOAS 2 DEMAND INLET NODE,PERIMETER_TOP_ZN_1 ZN AIR TERMINAL INLET AIR NODE,5 ZONE DOAS 2
     Supply Air Path Component Nodes,5,AIRLOOPHVAC:ZONESPLITTER,AIR LOOP HVAC ZONE SPLITTER 3,5 ZONE DOAS 2 DEMAND INLET NODE,CORE_TOP ZN AIR TERMINAL INLET AIR NODE,5 ZONE DOAS 2
! <#Nodes on Supply Air Path>,<Number of Nodes>
! <Supply Air Path Node>,<Node Type>,<Node Count>,<Node Name>,<AirLoopHVAC Name>
#Nodes on Supply Air Path,6
   Supply Air Path Node,Inlet Node,1,5 ZONE DOAS 2 DEMAND INLET NODE,5 ZONE DOAS 2
   Supply Air Path Node,Outlet Node,2,PERIMETER_TOP_ZN_4 ZN AIR TERMINAL INLET AIR NODE,5 ZONE DOAS 2
   Supply Air Path Node,Outlet Node,3,PERIMETER_TOP_ZN_2 ZN AIR TERMINAL INLET AIR NODE,5 ZONE DOAS 2
   Supply Air Path Node,Outlet Node,4,PERIMETER_TOP_ZN_3 ZN AIR TERMINAL INLET AIR NODE,5 ZONE DOAS 2
   Supply Air Path Node,Outlet Node,5,PERIMETER_TOP_ZN_1 ZN AIR TERMINAL INLET AIR NODE,5 ZONE DOAS 2
   Supply Air Path Node,Outlet Node,6,CORE_TOP ZN AIR TERMINAL INLET AIR NODE,5 ZONE DOAS 2
! ===============================================================
! <#Return Air Paths>,<Number of Return Air Paths>
 #Return Air Paths,3
! <Return Air Path>,<Return Air Path Count>,<Return Air Path Name>,<AirLoopHVAC Name>
! <#Components on Return Air Path>,<Number of Components>
! <Return Air Path Component>,<Component Count>,<Component Type>,<Component Name>,<AirLoopHVAC Name>
! <#Inlet Nodes on Return Air Path Component>,<Number of Nodes>
! <Return Air Path Component Nodes>,<Node Count>,<Component Type>,<Component Name>,<Inlet Node Name>,<Outlet Node Name>,<AirLoopHVAC Name>
 Return Air Path,1,5 ZONE DOAS RETURN PATH,5 ZONE DOAS
   #Components on Return Air Path,1
   Return Air Path Component,1,AIRLOOPHVAC:ZONEMIXER,AIR LOOP HVAC ZONE MIXER 1,5 ZONE DOAS
     #Inlet Nodes on Return Air Path Component,5
     Return Air Path Component Nodes,1,AIRLOOPHVAC:ZONEMIXER,AIR LOOP HVAC ZONE MIXER 1,PERIMETER_BOT_ZN_3 ZN RETURN AIR NODE,5 ZONE DOAS DEMAND OUTLET NODE,5 ZONE DOAS
     Return Air Path Component Nodes,2,AIRLOOPHVAC:ZONEMIXER,AIR LOOP HVAC ZONE MIXER 1,PERIMETER_BOT_ZN_4 ZN RETURN AIR NODE,5 ZONE DOAS DEMAND OUTLET NODE,5 ZONE DOAS
     Return Air Path Component Nodes,3,AIRLOOPHVAC:ZONEMIXER,AIR LOOP HVAC ZONE MIXER 1,PERIMETER_BOT_ZN_2 ZN RETURN AIR NODE,5 ZONE DOAS DEMAND OUTLET NODE,5 ZONE DOAS
     Return Air Path Component Nodes,4,AIRLOOPHVAC:ZONEMIXER,AIR LOOP HVAC ZONE MIXER 1,PERIMETER_BOT_ZN_1 ZN RETURN AIR NODE,5 ZONE DOAS DEMAND OUTLET NODE,5 ZONE DOAS
     Return Air Path Component Nodes,5,AIRLOOPHVAC:ZONEMIXER,AIR LOOP HVAC ZONE MIXER 1,CORE_BOTTOM ZN RETURN AIR NODE,5 ZONE DOAS DEMAND OUTLET NODE,5 ZONE DOAS
! <#Nodes on Return Air Path>,<Number of Nodes>
! <Return Air Path Node>,<Node Type>,<Node Count>,<Node Name>,<AirLoopHVAC Name>
   #Nodes on Return Air Path,6
   Return Air Path Node,Outlet Node,1,5 ZONE DOAS DEMAND OUTLET NODE,5 ZONE DOAS
   Return Air Path Node,Inlet Node,2,PERIMETER_BOT_ZN_3 ZN RETURN AIR NODE,5 ZONE DOAS
   Return Air Path Node,Inlet Node,3,PERIMETER_BOT_ZN_4 ZN RETURN AIR NODE,5 ZONE DOAS
   Return Air Path Node,Inlet Node,4,PERIMETER_BOT_ZN_2 ZN RETURN AIR NODE,5 ZONE DOAS
   Return Air Path Node,Inlet Node,5,PERIMETER_BOT_ZN_1 ZN RETURN AIR NODE,5 ZONE DOAS
   Return Air Path Node,Inlet Node,6,CORE_BOTTOM ZN RETURN AIR NODE,5 ZONE DOAS
 Return Air Path,2,5 ZONE DOAS 1 RETURN PATH,5 ZONE DOAS 1
   #Components on Return Air Path,1
   Return Air Path Component,1,AIRLOOPHVAC:ZONEMIXER,AIR LOOP HVAC ZONE MIXER 2,5 ZONE DOAS 1
     #Inlet Nodes on Return Air Path Component,5
     Return Air Path Component Nodes,1,AIRLOOPHVAC:ZONEMIXER,AIR LOOP HVAC ZONE MIXER 2,PERIMETER_MID_ZN_4 ZN RETURN AIR NODE,5 ZONE DOAS 1 DEMAND OUTLET NODE,5 ZONE DOAS 1
     Return Air Path Component Nodes,2,AIRLOOPHVAC:ZONEMIXER,AIR LOOP HVAC ZONE MIXER 2,PERIMETER_MID_ZN_2 ZN RETURN AIR NODE,5 ZONE DOAS 1 DEMAND OUTLET NODE,5 ZONE DOAS 1
     Return Air Path Component Nodes,3,AIRLOOPHVAC:ZONEMIXER,AIR LOOP HVAC ZONE MIXER 2,PERIMETER_MID_ZN_3 ZN RETURN AIR NODE,5 ZONE DOAS 1 DEMAND OUTLET NODE,5 ZONE DOAS 1
     Return Air Path Component Nodes,4,AIRLOOPHVAC:ZONEMIXER,AIR LOOP HVAC ZONE MIXER 2,PERIMETER_MID_ZN_1 ZN RETURN AIR NODE,5 ZONE DOAS 1 DEMAND OUTLET NODE,5 ZONE DOAS 1
     Return Air Path Component Nodes,5,AIRLOOPHVAC:ZONEMIXER,AIR LOOP HVAC ZONE MIXER 2,CORE_MID ZN RETURN AIR NODE,5 ZONE DOAS 1 DEMAND OUTLET NODE,5 ZONE DOAS 1
! <#Nodes on Return Air Path>,<Number of Nodes>
! <Return Air Path Node>,<Node Type>,<Node Count>,<Node Name>,<AirLoopHVAC Name>
   #Nodes on Return Air Path,6
   Return Air Path Node,Outlet Node,1,5 ZONE DOAS 1 DEMAND OUTLET NODE,5 ZONE DOAS 1
   Return Air Path Node,Inlet Node,2,PERIMETER_MID_ZN_4 ZN RETURN AIR NODE,5 ZONE DOAS 1
   Return Air Path Node,Inlet Node,3,PERIMETER_MID_ZN_2 ZN RETURN AIR NODE,5 ZONE DOAS 1
   Return Air Path Node,Inlet Node,4,PERIMETER_MID_ZN_3 ZN RETURN AIR NODE,5 ZONE DOAS 1
   Return Air Path Node,Inlet Node,5,PERIMETER_MID_ZN_1 ZN RETURN AIR NODE,5 ZONE DOAS 1
   Return Air Path Node,Inlet Node,6,CORE_MID ZN RETURN AIR NODE,5 ZONE DOAS 1
 Return Air Path,3,5 ZONE DOAS 2 RETURN PATH,5 ZONE DOAS 2
   #Components on Return Air Path,1
   Return Air Path Component,1,AIRLOOPHVAC:ZONEMIXER,AIR LOOP HVAC ZONE MIXER 3,5 ZONE DOAS 2
     #Inlet Nodes on Return Air Path Component,5
     Return Air Path Component Nodes,1,AIRLOOPHVAC:ZONEMIXER,AIR LOOP HVAC ZONE MIXER 3,PERIMETER_TOP_ZN_4 ZN RETURN AIR NODE,5 ZONE DOAS 2 DEMAND OUTLET NODE,5 ZONE DOAS 2
     Return Air Path Component Nodes,2,AIRLOOPHVAC:ZONEMIXER,AIR LOOP HVAC ZONE MIXER 3,PERIMETER_TOP_ZN_2 ZN RETURN AIR NODE,5 ZONE DOAS 2 DEMAND OUTLET NODE,5 ZONE DOAS 2
     Return Air Path Component Nodes,3,AIRLOOPHVAC:ZONEMIXER,AIR LOOP HVAC ZONE MIXER 3,PERIMETER_TOP_ZN_3 ZN RETURN AIR NODE,5 ZONE DOAS 2 DEMAND OUTLET NODE,5 ZONE DOAS 2
     Return Air Path Component Nodes,4,AIRLOOPHVAC:ZONEMIXER,AIR LOOP HVAC ZONE MIXER 3,PERIMETER_TOP_ZN_1 ZN RETURN AIR NODE,5 ZONE DOAS 2 DEMAND OUTLET NODE,5 ZONE DOAS 2
     Return Air Path Component Nodes,5,AIRLOOPHVAC:ZONEMIXER,AIR LOOP HVAC ZONE MIXER 3,CORE_TOP ZN RETURN AIR NODE,5 ZONE DOAS 2 DEMAND OUTLET NODE,5 ZONE DOAS 2
! <#Nodes on Return Air Path>,<Number of Nodes>
! <Return Air Path Node>,<Node Type>,<Node Count>,<Node Name>,<AirLoopHVAC Name>
   #Nodes on Return Air Path,6
   Return Air Path Node,Outlet Node,1,5 ZONE DOAS 2 DEMAND OUTLET NODE,5 ZONE DOAS 2
   Return Air Path Node,Inlet Node,2,PERIMETER_TOP_ZN_4 ZN RETURN AIR NODE,5 ZONE DOAS 2
   Return Air Path Node,Inlet Node,3,PERIMETER_TOP_ZN_2 ZN RETURN AIR NODE,5 ZONE DOAS 2
   Return Air Path Node,Inlet Node,4,PERIMETER_TOP_ZN_3 ZN RETURN AIR NODE,5 ZONE DOAS 2
   Return Air Path Node,Inlet Node,5,PERIMETER_TOP_ZN_1 ZN RETURN AIR NODE,5 ZONE DOAS 2
   Return Air Path Node,Inlet Node,6,CORE_TOP ZN RETURN AIR NODE,5 ZONE DOAS 2
! ===============================================================
! #Outdoor Air Nodes,<Number of Outdoor Air Nodes>
 #Outdoor Air Nodes,4
! <Outdoor Air Node>,<NodeNumber>,<Node Name>
 Outdoor Air Node,149,5 ZONE DOAS OUTDOOR AIR NODE
 Outdoor Air Node,150,5 ZONE DOAS 1 OUTDOOR AIR NODE
 Outdoor Air Node,151,5 ZONE DOAS 2 OUTDOOR AIR NODE
 Outdoor Air Node,152,MODEL OUTDOOR AIR NODE
! ===============================================================
! <#Component Sets>,<Number of Component Sets>
 #Component Sets,113
! <Component Set>,<Component Set Count>,<Parent Object Type>,<Parent Object Name>,<Component Type>,<Component Name>,<Inlet Node ID>,<Outlet Node ID>,<Description>
 Component Set,1,BRANCH,5 ZONE DOAS MAIN BRANCH,FAN:CONSTANTVOLUME,DOAS EXHAUST FAN,5 ZONE DOAS SUPPLY INLET NODE,DOAS EXHAUST FAN OUTLET AIR NODE,Air Nodes
 Component Set,2,BRANCH,5 ZONE DOAS MAIN BRANCH,AIRLOOPHVAC:OUTDOORAIRSYSTEM,5 ZONE DOAS OA SYSTEM,DOAS EXHAUST FAN OUTLET AIR NODE,5 ZONE DOAS MIXED AIR NODE,Air Nodes
 Component Set,3,BRANCH,5 ZONE DOAS MAIN BRANCH,COILSYSTEM:COOLING:DX,5 ZONE DOAS 2SPD DX CLG COIL COILSYSTEM,5 ZONE DOAS MIXED AIR NODE,5 ZONE DOAS 2SPD DX CLG COIL OUTLET AIR NODE,Air Nodes
 Component Set,4,BRANCH,5 ZONE DOAS MAIN BRANCH,COILSYSTEM:HEATING:DX,5 ZONE DOAS HTG COIL COILSYSTEM,5 ZONE DOAS 2SPD DX CLG COIL OUTLET AIR NODE,5 ZONE DOAS HTG COIL OUTLET AIR NODE,Air Nodes
 Component Set,5,BRANCH,5 ZONE DOAS MAIN BRANCH,COIL:HEATING:ELECTRIC,5 ZONE DOAS BACKUP HTG COIL,5 ZONE DOAS HTG COIL OUTLET AIR NODE,5 ZONE DOAS BACKUP HTG COIL OUTLET AIR NODE,Air Nodes
 Component Set,6,BRANCH,5 ZONE DOAS MAIN BRANCH,FAN:CONSTANTVOLUME,DOAS SUPPLY FAN,5 ZONE DOAS BACKUP HTG COIL OUTLET AIR NODE,5 ZONE DOAS SUPPLY OUTLET NODE,Air Nodes
 Component Set,7,BRANCH,5 ZONE DOAS 1 MAIN BRANCH,FAN:CONSTANTVOLUME,DOAS EXHAUST FAN 1,5 ZONE DOAS 1 SUPPLY INLET NODE,DOAS EXHAUST FAN 1 OUTLET AIR NODE,Air Nodes
 Component Set,8,BRANCH,5 ZONE DOAS 1 MAIN BRANCH,AIRLOOPHVAC:OUTDOORAIRSYSTEM,5 ZONE DOAS 1 OA SYSTEM,DOAS EXHAUST FAN 1 OUTLET AIR NODE,5 ZONE DOAS 1 MIXED AIR NODE,Air Nodes
 Component Set,9,BRANCH,5 ZONE DOAS 1 MAIN BRANCH,COILSYSTEM:COOLING:DX,5 ZONE DOAS 1 2SPD DX CLG COIL COILSYSTEM,5 ZONE DOAS 1 MIXED AIR NODE,5 ZONE DOAS 1 2SPD DX CLG COIL OUTLET AIR NODE,Air Nodes
 Component Set,10,BRANCH,5 ZONE DOAS 1 MAIN BRANCH,COILSYSTEM:HEATING:DX,5 ZONE DOAS 1 HTG COIL COILSYSTEM,5 ZONE DOAS 1 2SPD DX CLG COIL OUTLET AIR NODE,5 ZONE DOAS 1 HTG COIL OUTLET AIR NODE,Air Nodes
 Component Set,11,BRANCH,5 ZONE DOAS 1 MAIN BRANCH,COIL:HEATING:ELECTRIC,5 ZONE DOAS 1 BACKUP HTG COIL,5 ZONE DOAS 1 HTG COIL OUTLET AIR NODE,5 ZONE DOAS 1 BACKUP HTG COIL OUTLET AIR NODE,Air Nodes
 Component Set,12,BRANCH,5 ZONE DOAS 1 MAIN BRANCH,FAN:CONSTANTVOLUME,DOAS SUPPLY FAN 1,5 ZONE DOAS 1 BACKUP HTG COIL OUTLET AIR NODE,5 ZONE DOAS 1 SUPPLY OUTLET NODE,Air Nodes
 Component Set,13,BRANCH,5 ZONE DOAS 2 MAIN BRANCH,FAN:CONSTANTVOLUME,DOAS EXHAUST FAN 2,5 ZONE DOAS 2 SUPPLY INLET NODE,DOAS EXHAUST FAN 2 OUTLET AIR NODE,Air Nodes
 Component Set,14,BRANCH,5 ZONE DOAS 2 MAIN BRANCH,AIRLOOPHVAC:OUTDOORAIRSYSTEM,5 ZONE DOAS 2 OA SYSTEM,DOAS EXHAUST FAN 2 OUTLET AIR NODE,5 ZONE DOAS 2 MIXED AIR NODE,Air Nodes
 Component Set,15,BRANCH,5 ZONE DOAS 2 MAIN BRANCH,COILSYSTEM:COOLING:DX,5 ZONE DOAS 2 2SPD DX CLG COIL COILSYSTEM,5 ZONE DOAS 2 MIXED AIR NODE,5 ZONE DOAS 2 2SPD DX CLG COIL OUTLET AIR NODE,Air Nodes
 Component Set,16,BRANCH,5 ZONE DOAS 2 MAIN BRANCH,COILSYSTEM:HEATING:DX,5 ZONE DOAS 2 HTG COIL COILSYSTEM,5 ZONE DOAS 2 2SPD DX CLG COIL OUTLET AIR NODE,5 ZONE DOAS 2 HTG COIL OUTLET AIR NODE,Air Nodes
 Component Set,17,BRANCH,5 ZONE DOAS 2 MAIN BRANCH,COIL:HEATING:ELECTRIC,5 ZONE DOAS 2 BACKUP HTG COIL,5 ZONE DOAS 2 HTG COIL OUTLET AIR NODE,5 ZONE DOAS 2 BACKUP HTG COIL OUTLET AIR NODE,Air Nodes
 Component Set,18,BRANCH,5 ZONE DOAS 2 MAIN BRANCH,FAN:CONSTANTVOLUME,DOAS SUPPLY FAN 2,5 ZONE DOAS 2 BACKUP HTG COIL OUTLET AIR NODE,5 ZONE DOAS 2 SUPPLY OUTLET NODE,Air Nodes
 Component Set,19,BRANCH,MAIN SERVICE WATER LOOP SUPPLY INLET BRANCH,PUMP:CONSTANTSPEED,SERVICE WATER LOOP PUMP,MAIN SERVICE WATER LOOP SUPPLY INLET NODE,SERVICE WATER LOOP PUMP OUTLET WATER NODE,Water Nodes
 Component Set,20,BRANCH,MAIN SERVICE WATER LOOP SUPPLY BRANCH 1,WATERHEATER:MIXED,100GAL NATURAL GAS WATER HEATER - 100KBTU/HR 0.802 THERM EFF,100GAL NATURAL GAS WATER HEATER - 100KBTU/HR 0.802 THERM EFF SUPPLY INLET WATER NODE,100GAL NATURAL GAS WATER HEATER - 100KBTU/HR 0.802 THERM EFF SUPPLY OUTLET WATER NODE,Use Side Water Nodes
 Component Set,21,BRANCH,MAIN SERVICE WATER LOOP SUPPLY BRANCH 2,PIPE:ADIABATIC,PIPE ADIABATIC 1,PIPE ADIABATIC 1 INLET WATER NODE,PIPE ADIABATIC 1 OUTLET WATER NODE,Pipe Nodes
 Component Set,22,BRANCH,MAIN SERVICE WATER LOOP SUPPLY OUTLET BRANCH,PIPE:ADIABATIC,PIPE ADIABATIC 3,PIPE ADIABATIC 3 INLET WATER NODE,MAIN SERVICE WATER LOOP SUPPLY OUTLET NODE,Pipe Nodes
 Component Set,23,BRANCH,MAIN SERVICE WATER LOOP DEMAND INLET BRANCH,PIPE:ADIABATIC,PIPE ADIABATIC 4,MAIN SERVICE WATER LOOP DEMAND INLET NODE,PIPE ADIABATIC 4 OUTLET WATER NODE,Pipe Nodes
 Component Set,24,BRANCH,MAIN SERVICE WATER LOOP DEMAND BRANCH 1,PIPE:ADIABATIC,PIPE ADIABATIC 2,PIPE ADIABATIC 2 INLET WATER NODE,PIPE ADIABATIC 2 OUTLET WATER NODE,Pipe Nodes
 Component Set,25,BRANCH,MAIN SERVICE WATER LOOP DEMAND BRANCH 2,WATERUSE:CONNECTIONS,WATER USE CONNECTIONS 1,WATER USE CONNECTIONS 1 INLET WATER NODE,WATER USE CONNECTIONS 1 OUTLET WATER NODE,DHW Nodes
 Component Set,26,BRANCH,MAIN SERVICE WATER LOOP DEMAND BRANCH 3,WATERUSE:CONNECTIONS,WATER USE CONNECTIONS 2,WATER USE CONNECTIONS 2 INLET WATER NODE,WATER USE CONNECTIONS 2 OUTLET WATER NODE,DHW Nodes
 Component Set,27,BRANCH,MAIN SERVICE WATER LOOP DEMAND BRANCH 4,WATERUSE:CONNECTIONS,WATER USE CONNECTIONS 3,WATER USE CONNECTIONS 3 INLET WATER NODE,WATER USE CONNECTIONS 3 OUTLET WATER NODE,DHW Nodes
 Component Set,28,BRANCH,MAIN SERVICE WATER LOOP DEMAND BRANCH 5,WATERUSE:CONNECTIONS,WATER USE CONNECTIONS 4,WATER USE CONNECTIONS 4 INLET WATER NODE,WATER USE CONNECTIONS 4 OUTLET WATER NODE,DHW Nodes
 Component Set,29,BRANCH,MAIN SERVICE WATER LOOP DEMAND BRANCH 6,WATERUSE:CONNECTIONS,WATER USE CONNECTIONS 5,WATER USE CONNECTIONS 5 INLET WATER NODE,WATER USE CONNECTIONS 5 OUTLET WATER NODE,DHW Nodes
 Component Set,30,BRANCH,MAIN SERVICE WATER LOOP DEMAND BRANCH 7,WATERUSE:CONNECTIONS,WATER USE CONNECTIONS 6,WATER USE CONNECTIONS 6 INLET WATER NODE,WATER USE CONNECTIONS 6 OUTLET WATER NODE,DHW Nodes
 Component Set,31,BRANCH,MAIN SERVICE WATER LOOP DEMAND BRANCH 8,WATERUSE:CONNECTIONS,WATER USE CONNECTIONS 7,WATER USE CONNECTIONS 7 INLET WATER NODE,WATER USE CONNECTIONS 7 OUTLET WATER NODE,DHW Nodes
 Component Set,32,BRANCH,MAIN SERVICE WATER LOOP DEMAND BRANCH 9,WATERUSE:CONNECTIONS,WATER USE CONNECTIONS 8,WATER USE CONNECTIONS 8 INLET WATER NODE,WATER USE CONNECTIONS 8 OUTLET WATER NODE,DHW Nodes
 Component Set,33,BRANCH,MAIN SERVICE WATER LOOP DEMAND BRANCH 10,WATERUSE:CONNECTIONS,WATER USE CONNECTIONS 9,WATER USE CONNECTIONS 9 INLET WATER NODE,WATER USE CONNECTIONS 9 OUTLET WATER NODE,DHW Nodes
 Component Set,34,BRANCH,MAIN SERVICE WATER LOOP DEMAND BRANCH 11,WATERUSE:CONNECTIONS,WATER USE CONNECTIONS 10,WATER USE CONNECTIONS 10 INLET WATER NODE,WATER USE CONNECTIONS 10 OUTLET WATER NODE,DHW Nodes
 Component Set,35,BRANCH,MAIN SERVICE WATER LOOP DEMAND BRANCH 12,WATERUSE:CONNECTIONS,WATER USE CONNECTIONS 11,WATER USE CONNECTIONS 11 INLET WATER NODE,WATER USE CONNECTIONS 11 OUTLET WATER NODE,DHW Nodes
 Component Set,36,BRANCH,MAIN SERVICE WATER LOOP DEMAND BRANCH 13,WATERUSE:CONNECTIONS,WATER USE CONNECTIONS 12,WATER USE CONNECTIONS 12 INLET WATER NODE,WATER USE CONNECTIONS 12 OUTLET WATER NODE,DHW Nodes
 Component Set,37,BRANCH,MAIN SERVICE WATER LOOP DEMAND BRANCH 14,WATERUSE:CONNECTIONS,WATER USE CONNECTIONS 13,WATER USE CONNECTIONS 13 INLET WATER NODE,WATER USE CONNECTIONS 13 OUTLET WATER NODE,DHW Nodes
 Component Set,38,BRANCH,MAIN SERVICE WATER LOOP DEMAND BRANCH 15,WATERUSE:CONNECTIONS,WATER USE CONNECTIONS 14,WATER USE CONNECTIONS 14 INLET WATER NODE,WATER USE CONNECTIONS 14 OUTLET WATER NODE,DHW Nodes
 Component Set,39,BRANCH,MAIN SERVICE WATER LOOP DEMAND BRANCH 16,WATERUSE:CONNECTIONS,WATER USE CONNECTIONS 15,WATER USE CONNECTIONS 15 INLET WATER NODE,WATER USE CONNECTIONS 15 OUTLET WATER NODE,DHW Nodes
 Component Set,40,BRANCH,MAIN SERVICE WATER LOOP DEMAND BYPASS BRANCH,PIPE:ADIABATIC,MAIN SERVICE WATER LOOP DEMAND BYPASS PIPE,MAIN SERVICE WATER LOOP DEMAND BYPASS PIPE INLET NODE,MAIN SERVICE WATER LOOP DEMAND BYPASS PIPE OUTLET NODE,Pipe Nodes
 Component Set,41,BRANCH,MAIN SERVICE WATER LOOP DEMAND OUTLET BRANCH,PIPE:ADIABATIC,PIPE ADIABATIC 5,PIPE ADIABATIC 5 INLET WATER NODE,MAIN SERVICE WATER LOOP DEMAND OUTLET NODE,Pipe Nodes
 Component Set,42,ZONEHVAC:AIRDISTRIBUTIONUNIT,ADU CORE_BOTTOM ZN AIR TERMINAL,AIRTERMINAL:SINGLEDUCT:CONSTANTVOLUME:NOREHEAT,CORE_BOTTOM ZN AIR TERMINAL,CORE_BOTTOM ZN AIR TERMINAL INLET AIR NODE,CORE_BOTTOM ZN AIR TERMINAL OUTLET AIR NODE,Air Nodes
 Component Set,43,ZONEHVAC:AIRDISTRIBUTIONUNIT,ADU CORE_MID ZN AIR TERMINAL,AIRTERMINAL:SINGLEDUCT:CONSTANTVOLUME:NOREHEAT,CORE_MID ZN AIR TERMINAL,CORE_MID ZN AIR TERMINAL INLET AIR NODE,CORE_MID ZN AIR TERMINAL OUTLET AIR NODE,Air Nodes
 Component Set,44,ZONEHVAC:AIRDISTRIBUTIONUNIT,ADU CORE_TOP ZN AIR TERMINAL,AIRTERMINAL:SINGLEDUCT:CONSTANTVOLUME:NOREHEAT,CORE_TOP ZN AIR TERMINAL,CORE_TOP ZN AIR TERMINAL INLET AIR NODE,CORE_TOP ZN AIR TERMINAL OUTLET AIR NODE,Air Nodes
 Component Set,45,ZONEHVAC:AIRDISTRIBUTIONUNIT,ADU PERIMETER_BOT_ZN_1 ZN AIR TERMINAL,AIRTERMINAL:SINGLEDUCT:CONSTANTVOLUME:NOREHEAT,PERIMETER_BOT_ZN_1 ZN AIR TERMINAL,PERIMETER_BOT_ZN_1 ZN AIR TERMINAL INLET AIR NODE,PERIMETER_BOT_ZN_1 ZN AIR TERMINAL OUTLET AIR NODE,Air Nodes
 Component Set,46,ZONEHVAC:AIRDISTRIBUTIONUNIT,ADU PERIMETER_BOT_ZN_2 ZN AIR TERMINAL,AIRTERMINAL:SINGLEDUCT:CONSTANTVOLUME:NOREHEAT,PERIMETER_BOT_ZN_2 ZN AIR TERMINAL,PERIMETER_BOT_ZN_2 ZN AIR TERMINAL INLET AIR NODE,PERIMETER_BOT_ZN_2 ZN AIR TERMINAL OUTLET AIR NODE,Air Nodes
 Component Set,47,ZONEHVAC:AIRDISTRIBUTIONUNIT,ADU PERIMETER_BOT_ZN_3 ZN AIR TERMINAL,AIRTERMINAL:SINGLEDUCT:CONSTANTVOLUME:NOREHEAT,PERIMETER_BOT_ZN_3 ZN AIR TERMINAL,PERIMETER_BOT_ZN_3 ZN AIR TERMINAL INLET AIR NODE,PERIMETER_BOT_ZN_3 ZN AIR TERMINAL OUTLET AIR NODE,Air Nodes
 Component Set,48,ZONEHVAC:AIRDISTRIBUTIONUNIT,ADU PERIMETER_BOT_ZN_4 ZN AIR TERMINAL,AIRTERMINAL:SINGLEDUCT:CONSTANTVOLUME:NOREHEAT,PERIMETER_BOT_ZN_4 ZN AIR TERMINAL,PERIMETER_BOT_ZN_4 ZN AIR TERMINAL INLET AIR NODE,PERIMETER_BOT_ZN_4 ZN AIR TERMINAL OUTLET AIR NODE,Air Nodes
 Component Set,49,ZONEHVAC:AIRDISTRIBUTIONUNIT,ADU PERIMETER_MID_ZN_1 ZN AIR TERMINAL,AIRTERMINAL:SINGLEDUCT:CONSTANTVOLUME:NOREHEAT,PERIMETER_MID_ZN_1 ZN AIR TERMINAL,PERIMETER_MID_ZN_1 ZN AIR TERMINAL INLET AIR NODE,PERIMETER_MID_ZN_1 ZN AIR TERMINAL OUTLET AIR NODE,Air Nodes
 Component Set,50,ZONEHVAC:AIRDISTRIBUTIONUNIT,ADU PERIMETER_MID_ZN_2 ZN AIR TERMINAL,AIRTERMINAL:SINGLEDUCT:CONSTANTVOLUME:NOREHEAT,PERIMETER_MID_ZN_2 ZN AIR TERMINAL,PERIMETER_MID_ZN_2 ZN AIR TERMINAL INLET AIR NODE,PERIMETER_MID_ZN_2 ZN AIR TERMINAL OUTLET AIR NODE,Air Nodes
 Component Set,51,ZONEHVAC:AIRDISTRIBUTIONUNIT,ADU PERIMETER_MID_ZN_3 ZN AIR TERMINAL,AIRTERMINAL:SINGLEDUCT:CONSTANTVOLUME:NOREHEAT,PERIMETER_MID_ZN_3 ZN AIR TERMINAL,PERIMETER_MID_ZN_3 ZN AIR TERMINAL INLET AIR NODE,PERIMETER_MID_ZN_3 ZN AIR TERMINAL OUTLET AIR NODE,Air Nodes
 Component Set,52,ZONEHVAC:AIRDISTRIBUTIONUNIT,ADU PERIMETER_MID_ZN_4 ZN AIR TERMINAL,AIRTERMINAL:SINGLEDUCT:CONSTANTVOLUME:NOREHEAT,PERIMETER_MID_ZN_4 ZN AIR TERMINAL,PERIMETER_MID_ZN_4 ZN AIR TERMINAL INLET AIR NODE,PERIMETER_MID_ZN_4 ZN AIR TERMINAL OUTLET AIR NODE,Air Nodes
 Component Set,53,ZONEHVAC:AIRDISTRIBUTIONUNIT,ADU PERIMETER_TOP_ZN_1 ZN AIR TERMINAL,AIRTERMINAL:SINGLEDUCT:CONSTANTVOLUME:NOREHEAT,PERIMETER_TOP_ZN_1 ZN AIR TERMINAL,PERIMETER_TOP_ZN_1 ZN AIR TERMINAL INLET AIR NODE,PERIMETER_TOP_ZN_1 ZN AIR TERMINAL OUTLET AIR NODE,Air Nodes
 Component Set,54,ZONEHVAC:AIRDISTRIBUTIONUNIT,ADU PERIMETER_TOP_ZN_2 ZN AIR TERMINAL,AIRTERMINAL:SINGLEDUCT:CONSTANTVOLUME:NOREHEAT,PERIMETER_TOP_ZN_2 ZN AIR TERMINAL,PERIMETER_TOP_ZN_2 ZN AIR TERMINAL INLET AIR NODE,PERIMETER_TOP_ZN_2 ZN AIR TERMINAL OUTLET AIR NODE,Air Nodes
 Component Set,55,ZONEHVAC:AIRDISTRIBUTIONUNIT,ADU PERIMETER_TOP_ZN_3 ZN AIR TERMINAL,AIRTERMINAL:SINGLEDUCT:CONSTANTVOLUME:NOREHEAT,PERIMETER_TOP_ZN_3 ZN AIR TERMINAL,PERIMETER_TOP_ZN_3 ZN AIR TERMINAL INLET AIR NODE,PERIMETER_TOP_ZN_3 ZN AIR TERMINAL OUTLET AIR NODE,Air Nodes
 Component Set,56,ZONEHVAC:AIRDISTRIBUTIONUNIT,ADU PERIMETER_TOP_ZN_4 ZN AIR TERMINAL,AIRTERMINAL:SINGLEDUCT:CONSTANTVOLUME:NOREHEAT,PERIMETER_TOP_ZN_4 ZN AIR TERMINAL,PERIMETER_TOP_ZN_4 ZN AIR TERMINAL INLET AIR NODE,PERIMETER_TOP_ZN_4 ZN AIR TERMINAL OUTLET AIR NODE,Air Nodes
 Component Set,57,ZONEHVAC:TERMINALUNIT:VARIABLEREFRIGERANTFLOW,CORE_BOTTOM ZN VRF TERMINAL UNIT,FAN:ONOFF,CORE_BOTTOM ZN VRF UNIT CYCLING FAN,CORE_BOTTOM ZN VRF TERMINAL UNIT HEATING COIL OUTLET NODE,CORE_BOTTOM ZN VRF TERMINAL UNIT OUTLET AIR NODE,Air Nodes
 Component Set,58,ZONEHVAC:TERMINALUNIT:VARIABLEREFRIGERANTFLOW,CORE_MID ZN VRF TERMINAL UNIT,FAN:ONOFF,CORE_MID ZN VRF UNIT CYCLING FAN,CORE_MID ZN VRF TERMINAL UNIT HEATING COIL OUTLET NODE,CORE_MID ZN VRF TERMINAL UNIT OUTLET AIR NODE,Air Nodes
 Component Set,59,ZONEHVAC:TERMINALUNIT:VARIABLEREFRIGERANTFLOW,CORE_TOP ZN VRF TERMINAL UNIT,FAN:ONOFF,CORE_TOP ZN VRF UNIT CYCLING FAN,CORE_TOP ZN VRF TERMINAL UNIT HEATING COIL OUTLET NODE,CORE_TOP ZN VRF TERMINAL UNIT OUTLET AIR NODE,Air Nodes
 Component Set,60,ZONEHVAC:TERMINALUNIT:VARIABLEREFRIGERANTFLOW,PERIMETER_BOT_ZN_1 ZN VRF TERMINAL UNIT,FAN:ONOFF,PERIMETER_BOT_ZN_1 ZN VRF UNIT CYCLING FAN,PERIMETER_BOT_ZN_1 ZN VRF TERMINAL UNIT HEATING COIL OUTLET NODE,PERIMETER_BOT_ZN_1 ZN VRF TERMINAL UNIT OUTLET AIR NODE,Air Nodes
 Component Set,61,ZONEHVAC:TERMINALUNIT:VARIABLEREFRIGERANTFLOW,PERIMETER_BOT_ZN_2 ZN VRF TERMINAL UNIT,FAN:ONOFF,PERIMETER_BOT_ZN_2 ZN VRF UNIT CYCLING FAN,PERIMETER_BOT_ZN_2 ZN VRF TERMINAL UNIT HEATING COIL OUTLET NODE,PERIMETER_BOT_ZN_2 ZN VRF TERMINAL UNIT OUTLET AIR NODE,Air Nodes
 Component Set,62,ZONEHVAC:TERMINALUNIT:VARIABLEREFRIGERANTFLOW,PERIMETER_BOT_ZN_3 ZN VRF TERMINAL UNIT,FAN:ONOFF,PERIMETER_BOT_ZN_3 ZN VRF UNIT CYCLING FAN,PERIMETER_BOT_ZN_3 ZN VRF TERMINAL UNIT HEATING COIL OUTLET NODE,PERIMETER_BOT_ZN_3 ZN VRF TERMINAL UNIT OUTLET AIR NODE,Air Nodes
 Component Set,63,ZONEHVAC:TERMINALUNIT:VARIABLEREFRIGERANTFLOW,PERIMETER_BOT_ZN_4 ZN VRF TERMINAL UNIT,FAN:ONOFF,PERIMETER_BOT_ZN_4 ZN VRF UNIT CYCLING FAN,PERIMETER_BOT_ZN_4 ZN VRF TERMINAL UNIT HEATING COIL OUTLET NODE,PERIMETER_BOT_ZN_4 ZN VRF TERMINAL UNIT OUTLET AIR NODE,Air Nodes
 Component Set,64,ZONEHVAC:TERMINALUNIT:VARIABLEREFRIGERANTFLOW,PERIMETER_MID_ZN_1 ZN VRF TERMINAL UNIT,FAN:ONOFF,PERIMETER_MID_ZN_1 ZN VRF UNIT CYCLING FAN,PERIMETER_MID_ZN_1 ZN VRF TERMINAL UNIT HEATING COIL OUTLET NODE,PERIMETER_MID_ZN_1 ZN VRF TERMINAL UNIT OUTLET AIR NODE,Air Nodes
 Component Set,65,ZONEHVAC:TERMINALUNIT:VARIABLEREFRIGERANTFLOW,PERIMETER_MID_ZN_2 ZN VRF TERMINAL UNIT,FAN:ONOFF,PERIMETER_MID_ZN_2 ZN VRF UNIT CYCLING FAN,PERIMETER_MID_ZN_2 ZN VRF TERMINAL UNIT HEATING COIL OUTLET NODE,PERIMETER_MID_ZN_2 ZN VRF TERMINAL UNIT OUTLET AIR NODE,Air Nodes
 Component Set,66,ZONEHVAC:TERMINALUNIT:VARIABLEREFRIGERANTFLOW,PERIMETER_MID_ZN_3 ZN VRF TERMINAL UNIT,FAN:ONOFF,PERIMETER_MID_ZN_3 ZN VRF UNIT CYCLING FAN,PERIMETER_MID_ZN_3 ZN VRF TERMINAL UNIT HEATING COIL OUTLET NODE,PERIMETER_MID_ZN_3 ZN VRF TERMINAL UNIT OUTLET AIR NODE,Air Nodes
 Component Set,67,ZONEHVAC:TERMINALUNIT:VARIABLEREFRIGERANTFLOW,PERIMETER_MID_ZN_4 ZN VRF TERMINAL UNIT,FAN:ONOFF,PERIMETER_MID_ZN_4 ZN VRF UNIT CYCLING FAN,PERIMETER_MID_ZN_4 ZN VRF TERMINAL UNIT HEATING COIL OUTLET NODE,PERIMETER_MID_ZN_4 ZN VRF TERMINAL UNIT OUTLET AIR NODE,Air Nodes
 Component Set,68,ZONEHVAC:TERMINALUNIT:VARIABLEREFRIGERANTFLOW,PERIMETER_TOP_ZN_1 ZN VRF TERMINAL UNIT,FAN:ONOFF,PERIMETER_TOP_ZN_1 ZN VRF UNIT CYCLING FAN,PERIMETER_TOP_ZN_1 ZN VRF TERMINAL UNIT HEATING COIL OUTLET NODE,PERIMETER_TOP_ZN_1 ZN VRF TERMINAL UNIT OUTLET AIR NODE,Air Nodes
 Component Set,69,ZONEHVAC:TERMINALUNIT:VARIABLEREFRIGERANTFLOW,PERIMETER_TOP_ZN_2 ZN VRF TERMINAL UNIT,FAN:ONOFF,PERIMETER_TOP_ZN_2 ZN VRF UNIT CYCLING FAN,PERIMETER_TOP_ZN_2 ZN VRF TERMINAL UNIT HEATING COIL OUTLET NODE,PERIMETER_TOP_ZN_2 ZN VRF TERMINAL UNIT OUTLET AIR NODE,Air Nodes
 Component Set,70,ZONEHVAC:TERMINALUNIT:VARIABLEREFRIGERANTFLOW,PERIMETER_TOP_ZN_3 ZN VRF TERMINAL UNIT,FAN:ONOFF,PERIMETER_TOP_ZN_3 ZN VRF UNIT CYCLING FAN,PERIMETER_TOP_ZN_3 ZN VRF TERMINAL UNIT HEATING COIL OUTLET NODE,PERIMETER_TOP_ZN_3 ZN VRF TERMINAL UNIT OUTLET AIR NODE,Air Nodes
 Component Set,71,ZONEHVAC:TERMINALUNIT:VARIABLEREFRIGERANTFLOW,PERIMETER_TOP_ZN_4 ZN VRF TERMINAL UNIT,FAN:ONOFF,PERIMETER_TOP_ZN_4 ZN VRF UNIT CYCLING FAN,PERIMETER_TOP_ZN_4 ZN VRF TERMINAL UNIT HEATING COIL OUTLET NODE,PERIMETER_TOP_ZN_4 ZN VRF TERMINAL UNIT OUTLET AIR NODE,Air Nodes
 Component Set,72,COILSYSTEM:HEATING:DX,5 ZONE DOAS HTG COIL COILSYSTEM,COIL:HEATING:DX:SINGLESPEED,5 ZONE DOAS HTG COIL,5 ZONE DOAS 2SPD DX CLG COIL OUTLET AIR NODE,5 ZONE DOAS HTG COIL OUTLET AIR NODE,Air Nodes
 Component Set,73,COILSYSTEM:HEATING:DX,5 ZONE DOAS 1 HTG COIL COILSYSTEM,COIL:HEATING:DX:SINGLESPEED,5 ZONE DOAS 1 HTG COIL,5 ZONE DOAS 1 2SPD DX CLG COIL OUTLET AIR NODE,5 ZONE DOAS 1 HTG COIL OUTLET AIR NODE,Air Nodes
 Component Set,74,COILSYSTEM:HEATING:DX,5 ZONE DOAS 2 HTG COIL COILSYSTEM,COIL:HEATING:DX:SINGLESPEED,5 ZONE DOAS 2 HTG COIL,5 ZONE DOAS 2 2SPD DX CLG COIL OUTLET AIR NODE,5 ZONE DOAS 2 HTG COIL OUTLET AIR NODE,Air Nodes
 Component Set,75,COILSYSTEM:COOLING:DX,5 ZONE DOAS 2SPD DX CLG COIL COILSYSTEM,COIL:COOLING:DX:TWOSPEED,5 ZONE DOAS 2SPD DX CLG COIL,5 ZONE DOAS MIXED AIR NODE,5 ZONE DOAS 2SPD DX CLG COIL OUTLET AIR NODE,Air Nodes
 Component Set,76,COILSYSTEM:COOLING:DX,5 ZONE DOAS 1 2SPD DX CLG COIL COILSYSTEM,COIL:COOLING:DX:TWOSPEED,5 ZONE DOAS 1 2SPD DX CLG COIL,5 ZONE DOAS 1 MIXED AIR NODE,5 ZONE DOAS 1 2SPD DX CLG COIL OUTLET AIR NODE,Air Nodes
 Component Set,77,COILSYSTEM:COOLING:DX,5 ZONE DOAS 2 2SPD DX CLG COIL COILSYSTEM,COIL:COOLING:DX:TWOSPEED,5 ZONE DOAS 2 2SPD DX CLG COIL,5 ZONE DOAS 2 MIXED AIR NODE,5 ZONE DOAS 2 2SPD DX CLG COIL OUTLET AIR NODE,Air Nodes
 Component Set,78,ZONEHVAC:TERMINALUNIT:VARIABLEREFRIGERANTFLOW,CORE_BOTTOM ZN VRF TERMINAL UNIT,COIL:COOLING:DX:VARIABLEREFRIGERANTFLOW,ZONE HVAC TERMINAL UNIT VARIABLE REFRIGERANT FLOW 1 COOLING COIL 4,CORE_BOTTOM ZN VRF TERMINAL UNIT INLET AIR NODE,CORE_BOTTOM ZN VRF TERMINAL UNIT COOLING COIL OUTLET NODE,Air Nodes
 Component Set,79,ZONEHVAC:TERMINALUNIT:VARIABLEREFRIGERANTFLOW,CORE_MID ZN VRF TERMINAL UNIT,COIL:COOLING:DX:VARIABLEREFRIGERANTFLOW,ZONE HVAC TERMINAL UNIT VARIABLE REFRIGERANT FLOW 1 COOLING COIL 9,CORE_MID ZN VRF TERMINAL UNIT INLET AIR NODE,CORE_MID ZN VRF TERMINAL UNIT COOLING COIL OUTLET NODE,Air Nodes
 Component Set,80,ZONEHVAC:TERMINALUNIT:VARIABLEREFRIGERANTFLOW,CORE_TOP ZN VRF TERMINAL UNIT,COIL:COOLING:DX:VARIABLEREFRIGERANTFLOW,ZONE HVAC TERMINAL UNIT VARIABLE REFRIGERANT FLOW 1 COOLING COIL 14,CORE_TOP ZN VRF TERMINAL UNIT INLET AIR NODE,CORE_TOP ZN VRF TERMINAL UNIT COOLING COIL OUTLET NODE,Air Nodes
 Component Set,81,ZONEHVAC:TERMINALUNIT:VARIABLEREFRIGERANTFLOW,PERIMETER_BOT_ZN_1 ZN VRF TERMINAL UNIT,COIL:COOLING:DX:VARIABLEREFRIGERANTFLOW,ZONE HVAC TERMINAL UNIT VARIABLE REFRIGERANT FLOW 1 COOLING COIL 3,PERIMETER_BOT_ZN_1 ZN VRF TERMINAL UNIT INLET AIR NODE,PERIMETER_BOT_ZN_1 ZN VRF TERMINAL UNIT COOLING COIL OUTLET NODE,Air Nodes
 Component Set,82,ZONEHVAC:TERMINALUNIT:VARIABLEREFRIGERANTFLOW,PERIMETER_BOT_ZN_2 ZN VRF TERMINAL UNIT,COIL:COOLING:DX:VARIABLEREFRIGERANTFLOW,ZONE HVAC TERMINAL UNIT VARIABLE REFRIGERANT FLOW 1 COOLING COIL 2,PERIMETER_BOT_ZN_2 ZN VRF TERMINAL UNIT INLET AIR NODE,PERIMETER_BOT_ZN_2 ZN VRF TERMINAL UNIT COOLING COIL OUTLET NODE,Air Nodes
 Component Set,83,ZONEHVAC:TERMINALUNIT:VARIABLEREFRIGERANTFLOW,PERIMETER_BOT_ZN_3 ZN VRF TERMINAL UNIT,COIL:COOLING:DX:VARIABLEREFRIGERANTFLOW,ZONE HVAC TERMINAL UNIT VARIABLE REFRIGERANT FLOW 1 COOLING COIL,PERIMETER_BOT_ZN_3 ZN VRF TERMINAL UNIT INLET AIR NODE,PERIMETER_BOT_ZN_3 ZN VRF TERMINAL UNIT COOLING COIL OUTLET NODE,Air Nodes
 Component Set,84,ZONEHVAC:TERMINALUNIT:VARIABLEREFRIGERANTFLOW,PERIMETER_BOT_ZN_4 ZN VRF TERMINAL UNIT,COIL:COOLING:DX:VARIABLEREFRIGERANTFLOW,ZONE HVAC TERMINAL UNIT VARIABLE REFRIGERANT FLOW 1 COOLING COIL 1,PERIMETER_BOT_ZN_4 ZN VRF TERMINAL UNIT INLET AIR NODE,PERIMETER_BOT_ZN_4 ZN VRF TERMINAL UNIT COOLING COIL OUTLET NODE,Air Nodes
 Component Set,85,ZONEHVAC:TERMINALUNIT:VARIABLEREFRIGERANTFLOW,PERIMETER_MID_ZN_1 ZN VRF TERMINAL UNIT,COIL:COOLING:DX:VARIABLEREFRIGERANTFLOW,ZONE HVAC TERMINAL UNIT VARIABLE REFRIGERANT FLOW 1 COOLING COIL 8,PERIMETER_MID_ZN_1 ZN VRF TERMINAL UNIT INLET AIR NODE,PERIMETER_MID_ZN_1 ZN VRF TERMINAL UNIT COOLING COIL OUTLET NODE,Air Nodes
 Component Set,86,ZONEHVAC:TERMINALUNIT:VARIABLEREFRIGERANTFLOW,PERIMETER_MID_ZN_2 ZN VRF TERMINAL UNIT,COIL:COOLING:DX:VARIABLEREFRIGERANTFLOW,ZONE HVAC TERMINAL UNIT VARIABLE REFRIGERANT FLOW 1 COOLING COIL 6,PERIMETER_MID_ZN_2 ZN VRF TERMINAL UNIT INLET AIR NODE,PERIMETER_MID_ZN_2 ZN VRF TERMINAL UNIT COOLING COIL OUTLET NODE,Air Nodes
 Component Set,87,ZONEHVAC:TERMINALUNIT:VARIABLEREFRIGERANTFLOW,PERIMETER_MID_ZN_3 ZN VRF TERMINAL UNIT,COIL:COOLING:DX:VARIABLEREFRIGERANTFLOW,ZONE HVAC TERMINAL UNIT VARIABLE REFRIGERANT FLOW 1 COOLING COIL 7,PERIMETER_MID_ZN_3 ZN VRF TERMINAL UNIT INLET AIR NODE,PERIMETER_MID_ZN_3 ZN VRF TERMINAL UNIT COOLING COIL OUTLET NODE,Air Nodes
 Component Set,88,ZONEHVAC:TERMINALUNIT:VARIABLEREFRIGERANTFLOW,PERIMETER_MID_ZN_4 ZN VRF TERMINAL UNIT,COIL:COOLING:DX:VARIABLEREFRIGERANTFLOW,ZONE HVAC TERMINAL UNIT VARIABLE REFRIGERANT FLOW 1 COOLING COIL 5,PERIMETER_MID_ZN_4 ZN VRF TERMINAL UNIT INLET AIR NODE,PERIMETER_MID_ZN_4 ZN VRF TERMINAL UNIT COOLING COIL OUTLET NODE,Air Nodes
 Component Set,89,ZONEHVAC:TERMINALUNIT:VARIABLEREFRIGERANTFLOW,PERIMETER_TOP_ZN_1 ZN VRF TERMINAL UNIT,COIL:COOLING:DX:VARIABLEREFRIGERANTFLOW,ZONE HVAC TERMINAL UNIT VARIABLE REFRIGERANT FLOW 1 COOLING COIL 13,PERIMETER_TOP_ZN_1 ZN VRF TERMINAL UNIT INLET AIR NODE,PERIMETER_TOP_ZN_1 ZN VRF TERMINAL UNIT COOLING COIL OUTLET NODE,Air Nodes
 Component Set,90,ZONEHVAC:TERMINALUNIT:VARIABLEREFRIGERANTFLOW,PERIMETER_TOP_ZN_2 ZN VRF TERMINAL UNIT,COIL:COOLING:DX:VARIABLEREFRIGERANTFLOW,ZONE HVAC TERMINAL UNIT VARIABLE REFRIGERANT FLOW 1 COOLING COIL 11,PERIMETER_TOP_ZN_2 ZN VRF TERMINAL UNIT INLET AIR NODE,PERIMETER_TOP_ZN_2 ZN VRF TERMINAL UNIT COOLING COIL OUTLET NODE,Air Nodes
 Component Set,91,ZONEHVAC:TERMINALUNIT:VARIABLEREFRIGERANTFLOW,PERIMETER_TOP_ZN_3 ZN VRF TERMINAL UNIT,COIL:COOLING:DX:VARIABLEREFRIGERANTFLOW,ZONE HVAC TERMINAL UNIT VARIABLE REFRIGERANT FLOW 1 COOLING COIL 12,PERIMETER_TOP_ZN_3 ZN VRF TERMINAL UNIT INLET AIR NODE,PERIMETER_TOP_ZN_3 ZN VRF TERMINAL UNIT COOLING COIL OUTLET NODE,Air Nodes
 Component Set,92,ZONEHVAC:TERMINALUNIT:VARIABLEREFRIGERANTFLOW,PERIMETER_TOP_ZN_4 ZN VRF TERMINAL UNIT,COIL:COOLING:DX:VARIABLEREFRIGERANTFLOW,ZONE HVAC TERMINAL UNIT VARIABLE REFRIGERANT FLOW 1 COOLING COIL 10,PERIMETER_TOP_ZN_4 ZN VRF TERMINAL UNIT INLET AIR NODE,PERIMETER_TOP_ZN_4 ZN VRF TERMINAL UNIT COOLING COIL OUTLET NODE,Air Nodes
 Component Set,93,ZONEHVAC:TERMINALUNIT:VARIABLEREFRIGERANTFLOW,CORE_BOTTOM ZN VRF TERMINAL UNIT,COIL:HEATING:DX:VARIABLEREFRIGERANTFLOW,ZONE HVAC TERMINAL UNIT VARIABLE REFRIGERANT FLOW 1 HEATING COIL 4,CORE_BOTTOM ZN VRF TERMINAL UNIT COOLING COIL OUTLET NODE,CORE_BOTTOM ZN VRF TERMINAL UNIT HEATING COIL OUTLET NODE,Air Nodes
 Component Set,94,ZONEHVAC:TERMINALUNIT:VARIABLEREFRIGERANTFLOW,CORE_MID ZN VRF TERMINAL UNIT,COIL:HEATING:DX:VARIABLEREFRIGERANTFLOW,ZONE HVAC TERMINAL UNIT VARIABLE REFRIGERANT FLOW 1 HEATING COIL 9,CORE_MID ZN VRF TERMINAL UNIT COOLING COIL OUTLET NODE,CORE_MID ZN VRF TERMINAL UNIT HEATING COIL OUTLET NODE,Air Nodes
 Component Set,95,ZONEHVAC:TERMINALUNIT:VARIABLEREFRIGERANTFLOW,CORE_TOP ZN VRF TERMINAL UNIT,COIL:HEATING:DX:VARIABLEREFRIGERANTFLOW,ZONE HVAC TERMINAL UNIT VARIABLE REFRIGERANT FLOW 1 HEATING COIL 14,CORE_TOP ZN VRF TERMINAL UNIT COOLING COIL OUTLET NODE,CORE_TOP ZN VRF TERMINAL UNIT HEATING COIL OUTLET NODE,Air Nodes
 Component Set,96,ZONEHVAC:TERMINALUNIT:VARIABLEREFRIGERANTFLOW,PERIMETER_BOT_ZN_1 ZN VRF TERMINAL UNIT,COIL:HEATING:DX:VARIABLEREFRIGERANTFLOW,ZONE HVAC TERMINAL UNIT VARIABLE REFRIGERANT FLOW 1 HEATING COIL 3,PERIMETER_BOT_ZN_1 ZN VRF TERMINAL UNIT COOLING COIL OUTLET NODE,PERIMETER_BOT_ZN_1 ZN VRF TERMINAL UNIT HEATING COIL OUTLET NODE,Air Nodes
 Component Set,97,ZONEHVAC:TERMINALUNIT:VARIABLEREFRIGERANTFLOW,PERIMETER_BOT_ZN_2 ZN VRF TERMINAL UNIT,COIL:HEATING:DX:VARIABLEREFRIGERANTFLOW,ZONE HVAC TERMINAL UNIT VARIABLE REFRIGERANT FLOW 1 HEATING COIL 2,PERIMETER_BOT_ZN_2 ZN VRF TERMINAL UNIT COOLING COIL OUTLET NODE,PERIMETER_BOT_ZN_2 ZN VRF TERMINAL UNIT HEATING COIL OUTLET NODE,Air Nodes
 Component Set,98,ZONEHVAC:TERMINALUNIT:VARIABLEREFRIGERANTFLOW,PERIMETER_BOT_ZN_3 ZN VRF TERMINAL UNIT,COIL:HEATING:DX:VARIABLEREFRIGERANTFLOW,ZONE HVAC TERMINAL UNIT VARIABLE REFRIGERANT FLOW 1 HEATING COIL,PERIMETER_BOT_ZN_3 ZN VRF TERMINAL UNIT COOLING COIL OUTLET NODE,PERIMETER_BOT_ZN_3 ZN VRF TERMINAL UNIT HEATING COIL OUTLET NODE,Air Nodes
 Component Set,99,ZONEHVAC:TERMINALUNIT:VARIABLEREFRIGERANTFLOW,PERIMETER_BOT_ZN_4 ZN VRF TERMINAL UNIT,COIL:HEATING:DX:VARIABLEREFRIGERANTFLOW,ZONE HVAC TERMINAL UNIT VARIABLE REFRIGERANT FLOW 1 HEATING COIL 1,PERIMETER_BOT_ZN_4 ZN VRF TERMINAL UNIT COOLING COIL OUTLET NODE,PERIMETER_BOT_ZN_4 ZN VRF TERMINAL UNIT HEATING COIL OUTLET NODE,Air Nodes
 Component Set,100,ZONEHVAC:TERMINALUNIT:VARIABLEREFRIGERANTFLOW,PERIMETER_MID_ZN_1 ZN VRF TERMINAL UNIT,COIL:HEATING:DX:VARIABLEREFRIGERANTFLOW,ZONE HVAC TERMINAL UNIT VARIABLE REFRIGERANT FLOW 1 HEATING COIL 8,PERIMETER_MID_ZN_1 ZN VRF TERMINAL UNIT COOLING COIL OUTLET NODE,PERIMETER_MID_ZN_1 ZN VRF TERMINAL UNIT HEATING COIL OUTLET NODE,Air Nodes
 Component Set,101,ZONEHVAC:TERMINALUNIT:VARIABLEREFRIGERANTFLOW,PERIMETER_MID_ZN_2 ZN VRF TERMINAL UNIT,COIL:HEATING:DX:VARIABLEREFRIGERANTFLOW,ZONE HVAC TERMINAL UNIT VARIABLE REFRIGERANT FLOW 1 HEATING COIL 6,PERIMETER_MID_ZN_2 ZN VRF TERMINAL UNIT COOLING COIL OUTLET NODE,PERIMETER_MID_ZN_2 ZN VRF TERMINAL UNIT HEATING COIL OUTLET NODE,Air Nodes
 Component Set,102,ZONEHVAC:TERMINALUNIT:VARIABLEREFRIGERANTFLOW,PERIMETER_MID_ZN_3 ZN VRF TERMINAL UNIT,COIL:HEATING:DX:VARIABLEREFRIGERANTFLOW,ZONE HVAC TERMINAL UNIT VARIABLE REFRIGERANT FLOW 1 HEATING COIL 7,PERIMETER_MID_ZN_3 ZN VRF TERMINAL UNIT COOLING COIL OUTLET NODE,PERIMETER_MID_ZN_3 ZN VRF TERMINAL UNIT HEATING COIL OUTLET NODE,Air Nodes
 Component Set,103,ZONEHVAC:TERMINALUNIT:VARIABLEREFRIGERANTFLOW,PERIMETER_MID_ZN_4 ZN VRF TERMINAL UNIT,COIL:HEATING:DX:VARIABLEREFRIGERANTFLOW,ZONE HVAC TERMINAL UNIT VARIABLE REFRIGERANT FLOW 1 HEATING COIL 5,PERIMETER_MID_ZN_4 ZN VRF TERMINAL UNIT COOLING COIL OUTLET NODE,PERIMETER_MID_ZN_4 ZN VRF TERMINAL UNIT HEATING COIL OUTLET NODE,Air Nodes
 Component Set,104,ZONEHVAC:TERMINALUNIT:VARIABLEREFRIGERANTFLOW,PERIMETER_TOP_ZN_1 ZN VRF TERMINAL UNIT,COIL:HEATING:DX:VARIABLEREFRIGERANTFLOW,ZONE HVAC TERMINAL UNIT VARIABLE REFRIGERANT FLOW 1 HEATING COIL 13,PERIMETER_TOP_ZN_1 ZN VRF TERMINAL UNIT COOLING COIL OUTLET NODE,PERIMETER_TOP_ZN_1 ZN VRF TERMINAL UNIT HEATING COIL OUTLET NODE,Air Nodes
 Component Set,105,ZONEHVAC:TERMINALUNIT:VARIABLEREFRIGERANTFLOW,PERIMETER_TOP_ZN_2 ZN VRF TERMINAL UNIT,COIL:HEATING:DX:VARIABLEREFRIGERANTFLOW,ZONE HVAC TERMINAL UNIT VARIABLE REFRIGERANT FLOW 1 HEATING COIL 11,PERIMETER_TOP_ZN_2 ZN VRF TERMINAL UNIT COOLING COIL OUTLET NODE,PERIMETER_TOP_ZN_2 ZN VRF TERMINAL UNIT HEATING COIL OUTLET NODE,Air Nodes
 Component Set,106,ZONEHVAC:TERMINALUNIT:VARIABLEREFRIGERANTFLOW,PERIMETER_TOP_ZN_3 ZN VRF TERMINAL UNIT,COIL:HEATING:DX:VARIABLEREFRIGERANTFLOW,ZONE HVAC TERMINAL UNIT VARIABLE REFRIGERANT FLOW 1 HEATING COIL 12,PERIMETER_TOP_ZN_3 ZN VRF TERMINAL UNIT COOLING COIL OUTLET NODE,PERIMETER_TOP_ZN_3 ZN VRF TERMINAL UNIT HEATING COIL OUTLET NODE,Air Nodes
 Component Set,107,ZONEHVAC:TERMINALUNIT:VARIABLEREFRIGERANTFLOW,PERIMETER_TOP_ZN_4 ZN VRF TERMINAL UNIT,COIL:HEATING:DX:VARIABLEREFRIGERANTFLOW,ZONE HVAC TERMINAL UNIT VARIABLE REFRIGERANT FLOW 1 HEATING COIL 10,PERIMETER_TOP_ZN_4 ZN VRF TERMINAL UNIT COOLING COIL OUTLET NODE,PERIMETER_TOP_ZN_4 ZN VRF TERMINAL UNIT HEATING COIL OUTLET NODE,Air Nodes
 Component Set,108,AIRLOOPHVAC:OUTDOORAIRSYSTEM,5 ZONE DOAS OA SYSTEM,HEATEXCHANGER:AIRTOAIR:SENSIBLEANDLATENT,5 ZONE DOAS HEAT EXCHANGER,5 ZONE DOAS OUTDOOR AIR NODE,5 ZONE DOAS HEAT EXCHANGER PRIMARY OUTLET AIR NODE,Process Air Nodes
 Component Set,109,AIRLOOPHVAC:OUTDOORAIRSYSTEM,5 ZONE DOAS OA SYSTEM,OUTDOORAIR:MIXER,5 ZONE DOAS OA SYSTEM OUTDOOR AIR MIXER,5 ZONE DOAS HEAT EXCHANGER PRIMARY OUTLET AIR NODE,5 ZONE DOAS MIXED AIR NODE,Air Nodes
 Component Set,110,AIRLOOPHVAC:OUTDOORAIRSYSTEM,5 ZONE DOAS 1 OA SYSTEM,HEATEXCHANGER:AIRTOAIR:SENSIBLEANDLATENT,5 ZONE DOAS 1 HEAT EXCHANGER,5 ZONE DOAS 1 OUTDOOR AIR NODE,5 ZONE DOAS 1 HEAT EXCHANGER PRIMARY OUTLET AIR NODE,Process Air Nodes
 Component Set,111,AIRLOOPHVAC:OUTDOORAIRSYSTEM,5 ZONE DOAS 1 OA SYSTEM,OUTDOORAIR:MIXER,5 ZONE DOAS 1 OA SYSTEM OUTDOOR AIR MIXER,5 ZONE DOAS 1 HEAT EXCHANGER PRIMARY OUTLET AIR NODE,5 ZONE DOAS 1 MIXED AIR NODE,Air Nodes
 Component Set,112,AIRLOOPHVAC:OUTDOORAIRSYSTEM,5 ZONE DOAS 2 OA SYSTEM,HEATEXCHANGER:AIRTOAIR:SENSIBLEANDLATENT,5 ZONE DOAS 2 HEAT EXCHANGER,5 ZONE DOAS 2 OUTDOOR AIR NODE,5 ZONE DOAS 2 HEAT EXCHANGER PRIMARY OUTLET AIR NODE,Process Air Nodes
 Component Set,113,AIRLOOPHVAC:OUTDOORAIRSYSTEM,5 ZONE DOAS 2 OA SYSTEM,OUTDOORAIR:MIXER,5 ZONE DOAS 2 OA SYSTEM OUTDOOR AIR MIXER,5 ZONE DOAS 2 HEAT EXCHANGER PRIMARY OUTLET AIR NODE,5 ZONE DOAS 2 MIXED AIR NODE,Air Nodes
! ===============================================================
! <# Plant Loops>,<Number of Plant Loops>
 #Plant Loops,1
! <Plant Loop>,<Plant Loop Name>,<Loop Type>,<Inlet Node Name>,<Outlet Node Name>,<Branch List>,<Connector List>
! <Plant Loop Connector>,<Connector Type>,<Connector Name>,<Loop Name>,<Loop Type>,<Number of Inlets/Outlets>
! <Plant Loop Connector Branches>,<Connector Node Count>,<Connector Type>,<Connector Name>,<Inlet Branch>,<Outlet Branch>,<Loop Name>,<Loop Type>
! <Plant Loop Connector Nodes>,<Connector Node Count>,<Connector Type>,<Connector Name>,<Inlet Node>,<Outlet Node>,<Loop Name>,<Loop Type>
! <Plant Loop Supply Connection>,<Plant Loop Name>,<Supply Side Outlet Node Name>,<Demand Side Inlet Node Name>
! <Plant Loop Return Connection>,<Plant Loop Name>,<Demand Side Outlet Node Name>,<Supply Side Inlet Node Name>
 Plant Loop,MAIN SERVICE WATER LOOP,Demand,MAIN SERVICE WATER LOOP DEMAND INLET NODE,MAIN SERVICE WATER LOOP DEMAND OUTLET NODE,MAIN SERVICE WATER LOOP DEMAND BRANCHES,MAIN SERVICE WATER LOOP DEMAND CONNECTOR LIST
   Plant Loop Connector,Splitter,MAIN SERVICE WATER LOOP DEMAND SPLITTER,MAIN SERVICE WATER LOOP,Demand,17
     Plant Loop Connector Branches,1,Splitter,MAIN SERVICE WATER LOOP DEMAND SPLITTER,MAIN SERVICE WATER LOOP DEMAND INLET BRANCH,MAIN SERVICE WATER LOOP DEMAND BRANCH 1,MAIN SERVICE WATER LOOP,Demand
     Plant Loop Connector Nodes,   1,Splitter,MAIN SERVICE WATER LOOP DEMAND SPLITTER,PIPE ADIABATIC 4 OUTLET WATER NODE,PIPE ADIABATIC 2 INLET WATER NODE,MAIN SERVICE WATER LOOP,Demand
     Plant Loop Connector Branches,2,Splitter,MAIN SERVICE WATER LOOP DEMAND SPLITTER,MAIN SERVICE WATER LOOP DEMAND INLET BRANCH,MAIN SERVICE WATER LOOP DEMAND BRANCH 2,MAIN SERVICE WATER LOOP,Demand
     Plant Loop Connector Nodes,   2,Splitter,MAIN SERVICE WATER LOOP DEMAND SPLITTER,PIPE ADIABATIC 4 OUTLET WATER NODE,WATER USE CONNECTIONS 1 INLET WATER NODE,MAIN SERVICE WATER LOOP,Demand
     Plant Loop Connector Branches,3,Splitter,MAIN SERVICE WATER LOOP DEMAND SPLITTER,MAIN SERVICE WATER LOOP DEMAND INLET BRANCH,MAIN SERVICE WATER LOOP DEMAND BRANCH 3,MAIN SERVICE WATER LOOP,Demand
     Plant Loop Connector Nodes,   3,Splitter,MAIN SERVICE WATER LOOP DEMAND SPLITTER,PIPE ADIABATIC 4 OUTLET WATER NODE,WATER USE CONNECTIONS 2 INLET WATER NODE,MAIN SERVICE WATER LOOP,Demand
     Plant Loop Connector Branches,4,Splitter,MAIN SERVICE WATER LOOP DEMAND SPLITTER,MAIN SERVICE WATER LOOP DEMAND INLET BRANCH,MAIN SERVICE WATER LOOP DEMAND BRANCH 4,MAIN SERVICE WATER LOOP,Demand
     Plant Loop Connector Nodes,   4,Splitter,MAIN SERVICE WATER LOOP DEMAND SPLITTER,PIPE ADIABATIC 4 OUTLET WATER NODE,WATER USE CONNECTIONS 3 INLET WATER NODE,MAIN SERVICE WATER LOOP,Demand
     Plant Loop Connector Branches,5,Splitter,MAIN SERVICE WATER LOOP DEMAND SPLITTER,MAIN SERVICE WATER LOOP DEMAND INLET BRANCH,MAIN SERVICE WATER LOOP DEMAND BRANCH 5,MAIN SERVICE WATER LOOP,Demand
     Plant Loop Connector Nodes,   5,Splitter,MAIN SERVICE WATER LOOP DEMAND SPLITTER,PIPE ADIABATIC 4 OUTLET WATER NODE,WATER USE CONNECTIONS 4 INLET WATER NODE,MAIN SERVICE WATER LOOP,Demand
     Plant Loop Connector Branches,6,Splitter,MAIN SERVICE WATER LOOP DEMAND SPLITTER,MAIN SERVICE WATER LOOP DEMAND INLET BRANCH,MAIN SERVICE WATER LOOP DEMAND BRANCH 6,MAIN SERVICE WATER LOOP,Demand
     Plant Loop Connector Nodes,   6,Splitter,MAIN SERVICE WATER LOOP DEMAND SPLITTER,PIPE ADIABATIC 4 OUTLET WATER NODE,WATER USE CONNECTIONS 5 INLET WATER NODE,MAIN SERVICE WATER LOOP,Demand
     Plant Loop Connector Branches,7,Splitter,MAIN SERVICE WATER LOOP DEMAND SPLITTER,MAIN SERVICE WATER LOOP DEMAND INLET BRANCH,MAIN SERVICE WATER LOOP DEMAND BRANCH 7,MAIN SERVICE WATER LOOP,Demand
     Plant Loop Connector Nodes,   7,Splitter,MAIN SERVICE WATER LOOP DEMAND SPLITTER,PIPE ADIABATIC 4 OUTLET WATER NODE,WATER USE CONNECTIONS 6 INLET WATER NODE,MAIN SERVICE WATER LOOP,Demand
     Plant Loop Connector Branches,8,Splitter,MAIN SERVICE WATER LOOP DEMAND SPLITTER,MAIN SERVICE WATER LOOP DEMAND INLET BRANCH,MAIN SERVICE WATER LOOP DEMAND BRANCH 8,MAIN SERVICE WATER LOOP,Demand
     Plant Loop Connector Nodes,   8,Splitter,MAIN SERVICE WATER LOOP DEMAND SPLITTER,PIPE ADIABATIC 4 OUTLET WATER NODE,WATER USE CONNECTIONS 7 INLET WATER NODE,MAIN SERVICE WATER LOOP,Demand
     Plant Loop Connector Branches,9,Splitter,MAIN SERVICE WATER LOOP DEMAND SPLITTER,MAIN SERVICE WATER LOOP DEMAND INLET BRANCH,MAIN SERVICE WATER LOOP DEMAND BRANCH 9,MAIN SERVICE WATER LOOP,Demand
     Plant Loop Connector Nodes,   9,Splitter,MAIN SERVICE WATER LOOP DEMAND SPLITTER,PIPE ADIABATIC 4 OUTLET WATER NODE,WATER USE CONNECTIONS 8 INLET WATER NODE,MAIN SERVICE WATER LOOP,Demand
     Plant Loop Connector Branches,10,Splitter,MAIN SERVICE WATER LOOP DEMAND SPLITTER,MAIN SERVICE WATER LOOP DEMAND INLET BRANCH,MAIN SERVICE WATER LOOP DEMAND BRANCH 10,MAIN SERVICE WATER LOOP,Demand
     Plant Loop Connector Nodes,   10,Splitter,MAIN SERVICE WATER LOOP DEMAND SPLITTER,PIPE ADIABATIC 4 OUTLET WATER NODE,WATER USE CONNECTIONS 9 INLET WATER NODE,MAIN SERVICE WATER LOOP,Demand
     Plant Loop Connector Branches,11,Splitter,MAIN SERVICE WATER LOOP DEMAND SPLITTER,MAIN SERVICE WATER LOOP DEMAND INLET BRANCH,MAIN SERVICE WATER LOOP DEMAND BRANCH 11,MAIN SERVICE WATER LOOP,Demand
     Plant Loop Connector Nodes,   11,Splitter,MAIN SERVICE WATER LOOP DEMAND SPLITTER,PIPE ADIABATIC 4 OUTLET WATER NODE,WATER USE CONNECTIONS 10 INLET WATER NODE,MAIN SERVICE WATER LOOP,Demand
     Plant Loop Connector Branches,12,Splitter,MAIN SERVICE WATER LOOP DEMAND SPLITTER,MAIN SERVICE WATER LOOP DEMAND INLET BRANCH,MAIN SERVICE WATER LOOP DEMAND BRANCH 12,MAIN SERVICE WATER LOOP,Demand
     Plant Loop Connector Nodes,   12,Splitter,MAIN SERVICE WATER LOOP DEMAND SPLITTER,PIPE ADIABATIC 4 OUTLET WATER NODE,WATER USE CONNECTIONS 11 INLET WATER NODE,MAIN SERVICE WATER LOOP,Demand
     Plant Loop Connector Branches,13,Splitter,MAIN SERVICE WATER LOOP DEMAND SPLITTER,MAIN SERVICE WATER LOOP DEMAND INLET BRANCH,MAIN SERVICE WATER LOOP DEMAND BRANCH 13,MAIN SERVICE WATER LOOP,Demand
     Plant Loop Connector Nodes,   13,Splitter,MAIN SERVICE WATER LOOP DEMAND SPLITTER,PIPE ADIABATIC 4 OUTLET WATER NODE,WATER USE CONNECTIONS 12 INLET WATER NODE,MAIN SERVICE WATER LOOP,Demand
     Plant Loop Connector Branches,14,Splitter,MAIN SERVICE WATER LOOP DEMAND SPLITTER,MAIN SERVICE WATER LOOP DEMAND INLET BRANCH,MAIN SERVICE WATER LOOP DEMAND BRANCH 14,MAIN SERVICE WATER LOOP,Demand
     Plant Loop Connector Nodes,   14,Splitter,MAIN SERVICE WATER LOOP DEMAND SPLITTER,PIPE ADIABATIC 4 OUTLET WATER NODE,WATER USE CONNECTIONS 13 INLET WATER NODE,MAIN SERVICE WATER LOOP,Demand
     Plant Loop Connector Branches,15,Splitter,MAIN SERVICE WATER LOOP DEMAND SPLITTER,MAIN SERVICE WATER LOOP DEMAND INLET BRANCH,MAIN SERVICE WATER LOOP DEMAND BRANCH 15,MAIN SERVICE WATER LOOP,Demand
     Plant Loop Connector Nodes,   15,Splitter,MAIN SERVICE WATER LOOP DEMAND SPLITTER,PIPE ADIABATIC 4 OUTLET WATER NODE,WATER USE CONNECTIONS 14 INLET WATER NODE,MAIN SERVICE WATER LOOP,Demand
     Plant Loop Connector Branches,16,Splitter,MAIN SERVICE WATER LOOP DEMAND SPLITTER,MAIN SERVICE WATER LOOP DEMAND INLET BRANCH,MAIN SERVICE WATER LOOP DEMAND BRANCH 16,MAIN SERVICE WATER LOOP,Demand
     Plant Loop Connector Nodes,   16,Splitter,MAIN SERVICE WATER LOOP DEMAND SPLITTER,PIPE ADIABATIC 4 OUTLET WATER NODE,WATER USE CONNECTIONS 15 INLET WATER NODE,MAIN SERVICE WATER LOOP,Demand
     Plant Loop Connector Branches,17,Splitter,MAIN SERVICE WATER LOOP DEMAND SPLITTER,MAIN SERVICE WATER LOOP DEMAND INLET BRANCH,MAIN SERVICE WATER LOOP DEMAND BYPASS BRANCH,MAIN SERVICE WATER LOOP,Demand
     Plant Loop Connector Nodes,   17,Splitter,MAIN SERVICE WATER LOOP DEMAND SPLITTER,PIPE ADIABATIC 4 OUTLET WATER NODE,MAIN SERVICE WATER LOOP DEMAND BYPASS PIPE INLET NODE,MAIN SERVICE WATER LOOP,Demand
   Plant Loop Connector,Mixer,MAIN SERVICE WATER LOOP DEMAND MIXER,MAIN SERVICE WATER LOOP,Demand,17
     Plant Loop Connector Branches,1,Mixer,MAIN SERVICE WATER LOOP DEMAND MIXER,MAIN SERVICE WATER LOOP DEMAND BRANCH 1,MAIN SERVICE WATER LOOP DEMAND OUTLET BRANCH,MAIN SERVICE WATER LOOP,Demand
     Plant Loop Connector Nodes,   1,Mixer,MAIN SERVICE WATER LOOP DEMAND MIXER,PIPE ADIABATIC 2 OUTLET WATER NODE,PIPE ADIABATIC 5 INLET WATER NODE,MAIN SERVICE WATER LOOP,Demand
     Plant Loop Connector Branches,2,Mixer,MAIN SERVICE WATER LOOP DEMAND MIXER,MAIN SERVICE WATER LOOP DEMAND BRANCH 2,MAIN SERVICE WATER LOOP DEMAND OUTLET BRANCH,MAIN SERVICE WATER LOOP,Demand
     Plant Loop Connector Nodes,   2,Mixer,MAIN SERVICE WATER LOOP DEMAND MIXER,WATER USE CONNECTIONS 1 OUTLET WATER NODE,PIPE ADIABATIC 5 INLET WATER NODE,MAIN SERVICE WATER LOOP,Demand
     Plant Loop Connector Branches,3,Mixer,MAIN SERVICE WATER LOOP DEMAND MIXER,MAIN SERVICE WATER LOOP DEMAND BRANCH 3,MAIN SERVICE WATER LOOP DEMAND OUTLET BRANCH,MAIN SERVICE WATER LOOP,Demand
     Plant Loop Connector Nodes,   3,Mixer,MAIN SERVICE WATER LOOP DEMAND MIXER,WATER USE CONNECTIONS 2 OUTLET WATER NODE,PIPE ADIABATIC 5 INLET WATER NODE,MAIN SERVICE WATER LOOP,Demand
     Plant Loop Connector Branches,4,Mixer,MAIN SERVICE WATER LOOP DEMAND MIXER,MAIN SERVICE WATER LOOP DEMAND BRANCH 4,MAIN SERVICE WATER LOOP DEMAND OUTLET BRANCH,MAIN SERVICE WATER LOOP,Demand
     Plant Loop Connector Nodes,   4,Mixer,MAIN SERVICE WATER LOOP DEMAND MIXER,WATER USE CONNECTIONS 3 OUTLET WATER NODE,PIPE ADIABATIC 5 INLET WATER NODE,MAIN SERVICE WATER LOOP,Demand
     Plant Loop Connector Branches,5,Mixer,MAIN SERVICE WATER LOOP DEMAND MIXER,MAIN SERVICE WATER LOOP DEMAND BRANCH 5,MAIN SERVICE WATER LOOP DEMAND OUTLET BRANCH,MAIN SERVICE WATER LOOP,Demand
     Plant Loop Connector Nodes,   5,Mixer,MAIN SERVICE WATER LOOP DEMAND MIXER,WATER USE CONNECTIONS 4 OUTLET WATER NODE,PIPE ADIABATIC 5 INLET WATER NODE,MAIN SERVICE WATER LOOP,Demand
     Plant Loop Connector Branches,6,Mixer,MAIN SERVICE WATER LOOP DEMAND MIXER,MAIN SERVICE WATER LOOP DEMAND BRANCH 6,MAIN SERVICE WATER LOOP DEMAND OUTLET BRANCH,MAIN SERVICE WATER LOOP,Demand
     Plant Loop Connector Nodes,   6,Mixer,MAIN SERVICE WATER LOOP DEMAND MIXER,WATER USE CONNECTIONS 5 OUTLET WATER NODE,PIPE ADIABATIC 5 INLET WATER NODE,MAIN SERVICE WATER LOOP,Demand
     Plant Loop Connector Branches,7,Mixer,MAIN SERVICE WATER LOOP DEMAND MIXER,MAIN SERVICE WATER LOOP DEMAND BRANCH 7,MAIN SERVICE WATER LOOP DEMAND OUTLET BRANCH,MAIN SERVICE WATER LOOP,Demand
     Plant Loop Connector Nodes,   7,Mixer,MAIN SERVICE WATER LOOP DEMAND MIXER,WATER USE CONNECTIONS 6 OUTLET WATER NODE,PIPE ADIABATIC 5 INLET WATER NODE,MAIN SERVICE WATER LOOP,Demand
     Plant Loop Connector Branches,8,Mixer,MAIN SERVICE WATER LOOP DEMAND MIXER,MAIN SERVICE WATER LOOP DEMAND BRANCH 8,MAIN SERVICE WATER LOOP DEMAND OUTLET BRANCH,MAIN SERVICE WATER LOOP,Demand
     Plant Loop Connector Nodes,   8,Mixer,MAIN SERVICE WATER LOOP DEMAND MIXER,WATER USE CONNECTIONS 7 OUTLET WATER NODE,PIPE ADIABATIC 5 INLET WATER NODE,MAIN SERVICE WATER LOOP,Demand
     Plant Loop Connector Branches,9,Mixer,MAIN SERVICE WATER LOOP DEMAND MIXER,MAIN SERVICE WATER LOOP DEMAND BRANCH 9,MAIN SERVICE WATER LOOP DEMAND OUTLET BRANCH,MAIN SERVICE WATER LOOP,Demand
     Plant Loop Connector Nodes,   9,Mixer,MAIN SERVICE WATER LOOP DEMAND MIXER,WATER USE CONNECTIONS 8 OUTLET WATER NODE,PIPE ADIABATIC 5 INLET WATER NODE,MAIN SERVICE WATER LOOP,Demand
     Plant Loop Connector Branches,10,Mixer,MAIN SERVICE WATER LOOP DEMAND MIXER,MAIN SERVICE WATER LOOP DEMAND BRANCH 10,MAIN SERVICE WATER LOOP DEMAND OUTLET BRANCH,MAIN SERVICE WATER LOOP,Demand
     Plant Loop Connector Nodes,   10,Mixer,MAIN SERVICE WATER LOOP DEMAND MIXER,WATER USE CONNECTIONS 9 OUTLET WATER NODE,PIPE ADIABATIC 5 INLET WATER NODE,MAIN SERVICE WATER LOOP,Demand
     Plant Loop Connector Branches,11,Mixer,MAIN SERVICE WATER LOOP DEMAND MIXER,MAIN SERVICE WATER LOOP DEMAND BRANCH 11,MAIN SERVICE WATER LOOP DEMAND OUTLET BRANCH,MAIN SERVICE WATER LOOP,Demand
     Plant Loop Connector Nodes,   11,Mixer,MAIN SERVICE WATER LOOP DEMAND MIXER,WATER USE CONNECTIONS 10 OUTLET WATER NODE,PIPE ADIABATIC 5 INLET WATER NODE,MAIN SERVICE WATER LOOP,Demand
     Plant Loop Connector Branches,12,Mixer,MAIN SERVICE WATER LOOP DEMAND MIXER,MAIN SERVICE WATER LOOP DEMAND BRANCH 12,MAIN SERVICE WATER LOOP DEMAND OUTLET BRANCH,MAIN SERVICE WATER LOOP,Demand
     Plant Loop Connector Nodes,   12,Mixer,MAIN SERVICE WATER LOOP DEMAND MIXER,WATER USE CONNECTIONS 11 OUTLET WATER NODE,PIPE ADIABATIC 5 INLET WATER NODE,MAIN SERVICE WATER LOOP,Demand
     Plant Loop Connector Branches,13,Mixer,MAIN SERVICE WATER LOOP DEMAND MIXER,MAIN SERVICE WATER LOOP DEMAND BRANCH 13,MAIN SERVICE WATER LOOP DEMAND OUTLET BRANCH,MAIN SERVICE WATER LOOP,Demand
     Plant Loop Connector Nodes,   13,Mixer,MAIN SERVICE WATER LOOP DEMAND MIXER,WATER USE CONNECTIONS 12 OUTLET WATER NODE,PIPE ADIABATIC 5 INLET WATER NODE,MAIN SERVICE WATER LOOP,Demand
     Plant Loop Connector Branches,14,Mixer,MAIN SERVICE WATER LOOP DEMAND MIXER,MAIN SERVICE WATER LOOP DEMAND BRANCH 14,MAIN SERVICE WATER LOOP DEMAND OUTLET BRANCH,MAIN SERVICE WATER LOOP,Demand
     Plant Loop Connector Nodes,   14,Mixer,MAIN SERVICE WATER LOOP DEMAND MIXER,WATER USE CONNECTIONS 13 OUTLET WATER NODE,PIPE ADIABATIC 5 INLET WATER NODE,MAIN SERVICE WATER LOOP,Demand
     Plant Loop Connector Branches,15,Mixer,MAIN SERVICE WATER LOOP DEMAND MIXER,MAIN SERVICE WATER LOOP DEMAND BRANCH 15,MAIN SERVICE WATER LOOP DEMAND OUTLET BRANCH,MAIN SERVICE WATER LOOP,Demand
     Plant Loop Connector Nodes,   15,Mixer,MAIN SERVICE WATER LOOP DEMAND MIXER,WATER USE CONNECTIONS 14 OUTLET WATER NODE,PIPE ADIABATIC 5 INLET WATER NODE,MAIN SERVICE WATER LOOP,Demand
     Plant Loop Connector Branches,16,Mixer,MAIN SERVICE WATER LOOP DEMAND MIXER,MAIN SERVICE WATER LOOP DEMAND BRANCH 16,MAIN SERVICE WATER LOOP DEMAND OUTLET BRANCH,MAIN SERVICE WATER LOOP,Demand
     Plant Loop Connector Nodes,   16,Mixer,MAIN SERVICE WATER LOOP DEMAND MIXER,WATER USE CONNECTIONS 15 OUTLET WATER NODE,PIPE ADIABATIC 5 INLET WATER NODE,MAIN SERVICE WATER LOOP,Demand
     Plant Loop Connector Branches,17,Mixer,MAIN SERVICE WATER LOOP DEMAND MIXER,MAIN SERVICE WATER LOOP DEMAND BYPASS BRANCH,MAIN SERVICE WATER LOOP DEMAND OUTLET BRANCH,MAIN SERVICE WATER LOOP,Demand
     Plant Loop Connector Nodes,   17,Mixer,MAIN SERVICE WATER LOOP DEMAND MIXER,MAIN SERVICE WATER LOOP DEMAND BYPASS PIPE OUTLET NODE,PIPE ADIABATIC 5 INLET WATER NODE,MAIN SERVICE WATER LOOP,Demand
 Plant Loop,MAIN SERVICE WATER LOOP,Supply,MAIN SERVICE WATER LOOP SUPPLY INLET NODE,MAIN SERVICE WATER LOOP SUPPLY OUTLET NODE,MAIN SERVICE WATER LOOP SUPPLY BRANCHES,MAIN SERVICE WATER LOOP SUPPLY CONNECTOR LIST
   Plant Loop Connector,Splitter,MAIN SERVICE WATER LOOP SUPPLY SPLITTER,MAIN SERVICE WATER LOOP,Supply,2
     Plant Loop Connector Branches,1,Splitter,MAIN SERVICE WATER LOOP SUPPLY SPLITTER,MAIN SERVICE WATER LOOP SUPPLY INLET BRANCH,MAIN SERVICE WATER LOOP SUPPLY BRANCH 1,MAIN SERVICE WATER LOOP,Supply
     Plant Loop Connector Nodes,   1,Splitter,MAIN SERVICE WATER LOOP SUPPLY SPLITTER,SERVICE WATER LOOP PUMP OUTLET WATER NODE,100GAL NATURAL GAS WATER HEATER - 100KBTU/HR 0.802 THERM EFF SUPPLY INLET WATER NODE,MAIN SERVICE WATER LOOP,Supply
     Plant Loop Connector Branches,2,Splitter,MAIN SERVICE WATER LOOP SUPPLY SPLITTER,MAIN SERVICE WATER LOOP SUPPLY INLET BRANCH,MAIN SERVICE WATER LOOP SUPPLY BRANCH 2,MAIN SERVICE WATER LOOP,Supply
     Plant Loop Connector Nodes,   2,Splitter,MAIN SERVICE WATER LOOP SUPPLY SPLITTER,SERVICE WATER LOOP PUMP OUTLET WATER NODE,PIPE ADIABATIC 1 INLET WATER NODE,MAIN SERVICE WATER LOOP,Supply
   Plant Loop Connector,Mixer,MAIN SERVICE WATER LOOP SUPPLY MIXER,MAIN SERVICE WATER LOOP,Supply,2
     Plant Loop Connector Branches,1,Mixer,MAIN SERVICE WATER LOOP SUPPLY MIXER,MAIN SERVICE WATER LOOP SUPPLY BRANCH 1,MAIN SERVICE WATER LOOP SUPPLY OUTLET BRANCH,MAIN SERVICE WATER LOOP,Supply
     Plant Loop Connector Nodes,   1,Mixer,MAIN SERVICE WATER LOOP SUPPLY MIXER,100GAL NATURAL GAS WATER HEATER - 100KBTU/HR 0.802 THERM EFF SUPPLY OUTLET WATER NODE,PIPE ADIABATIC 3 INLET WATER NODE,MAIN SERVICE WATER LOOP,Supply
     Plant Loop Connector Branches,2,Mixer,MAIN SERVICE WATER LOOP SUPPLY MIXER,MAIN SERVICE WATER LOOP SUPPLY BRANCH 2,MAIN SERVICE WATER LOOP SUPPLY OUTLET BRANCH,MAIN SERVICE WATER LOOP,Supply
     Plant Loop Connector Nodes,   2,Mixer,MAIN SERVICE WATER LOOP SUPPLY MIXER,PIPE ADIABATIC 1 OUTLET WATER NODE,PIPE ADIABATIC 3 INLET WATER NODE,MAIN SERVICE WATER LOOP,Supply
 Plant Loop Supply Connection,MAIN SERVICE WATER LOOP,MAIN SERVICE WATER LOOP SUPPLY OUTLET NODE,MAIN SERVICE WATER LOOP DEMAND INLET NODE
 Plant Loop Return Connection,MAIN SERVICE WATER LOOP,MAIN SERVICE WATER LOOP DEMAND OUTLET NODE,MAIN SERVICE WATER LOOP SUPPLY INLET NODE
! ===============================================================
! <# Condenser Loops>,<Number of Condenser Loops>
 #Condenser Loops,0
! <Condenser Loop>,<Condenser Loop Name>,<Loop Type>,<Inlet Node Name>,<Outlet Node Name>,<Branch List>,<Connector List>
! <Condenser Loop Connector>,<Connector Type>,<Connector Name>,<Loop Name>,<Loop Type>,<Number of Inlets/Outlets>
! <Condenser Loop Connector Branches>,<Connector Node Count>,<Connector Type>,<Connector Name>,<Inlet Branch>,<Outlet Branch>,<Loop Name>,<Loop Type>
! <Condenser Loop Connector Nodes>,<Connector Node Count>,<Connector Type>,<Connector Name>,<Inlet Node>,<Outlet Node>,<Loop Name>,<Loop Type>
[...]
 Non-Parent Node Connection,CORE_TOP ZN VRF TERMINAL UNIT COOLING COIL OUTLET NODE,COIL:COOLING:DX:VARIABLEREFRIGERANTFLOW,ZONE HVAC TERMINAL UNIT VARIABLE REFRIGERANT FLOW 1 COOLING COIL 14,Outlet,1
 Non-Parent Node Connection,PERIMETER_BOT_ZN_1 ZN VRF TERMINAL UNIT INLET AIR NODE,COIL:COOLING:DX:VARIABLEREFRIGERANTFLOW,ZONE HVAC TERMINAL UNIT VARIABLE REFRIGERANT FLOW 1 COOLING COIL 3,Inlet,1
 Non-Parent Node Connection,PERIMETER_BOT_ZN_1 ZN VRF TERMINAL UNIT COOLING COIL OUTLET NODE,COIL:COOLING:DX:VARIABLEREFRIGERANTFLOW,ZONE HVAC TERMINAL UNIT VARIABLE REFRIGERANT FLOW 1 COOLING COIL 3,Outlet,1
 Non-Parent Node Connection,PERIMETER_BOT_ZN_2 ZN VRF TERMINAL UNIT INLET AIR NODE,COIL:COOLING:DX:VARIABLEREFRIGERANTFLOW,ZONE HVAC TERMINAL UNIT VARIABLE REFRIGERANT FLOW 1 COOLING COIL 2,Inlet,1
 Non-Parent Node Connection,PERIMETER_BOT_ZN_2 ZN VRF TERMINAL UNIT COOLING COIL OUTLET NODE,COIL:COOLING:DX:VARIABLEREFRIGERANTFLOW,ZONE HVAC TERMINAL UNIT VARIABLE REFRIGERANT FLOW 1 COOLING COIL 2,Outlet,1
 Non-Parent Node Connection,PERIMETER_BOT_ZN_3 ZN VRF TERMINAL UNIT INLET AIR NODE,COIL:COOLING:DX:VARIABLEREFRIGERANTFLOW,ZONE HVAC TERMINAL UNIT VARIABLE REFRIGERANT FLOW 1 COOLING COIL,Inlet,1
 Non-Parent Node Connection,PERIMETER_BOT_ZN_3 ZN VRF TERMINAL UNIT COOLING COIL OUTLET NODE,COIL:COOLING:DX:VARIABLEREFRIGERANTFLOW,ZONE HVAC TERMINAL UNIT VARIABLE REFRIGERANT FLOW 1 COOLING COIL,Outlet,1
 Non-Parent Node Connection,PERIMETER_BOT_ZN_4 ZN VRF TERMINAL UNIT INLET AIR NODE,COIL:COOLING:DX:VARIABLEREFRIGERANTFLOW,ZONE HVAC TERMINAL UNIT VARIABLE REFRIGERANT FLOW 1 COOLING COIL 1,Inlet,1
 Non-Parent Node Connection,PERIMETER_BOT_ZN_4 ZN VRF TERMINAL UNIT COOLING COIL OUTLET NODE,COIL:COOLING:DX:VARIABLEREFRIGERANTFLOW,ZONE HVAC TERMINAL UNIT VARIABLE REFRIGERANT FLOW 1 COOLING COIL 1,Outlet,1
 Non-Parent Node Connection,PERIMETER_MID_ZN_1 ZN VRF TERMINAL UNIT INLET AIR NODE,COIL:COOLING:DX:VARIABLEREFRIGERANTFLOW,ZONE HVAC TERMINAL UNIT VARIABLE REFRIGERANT FLOW 1 COOLING COIL 8,Inlet,1
 Non-Parent Node Connection,PERIMETER_MID_ZN_1 ZN VRF TERMINAL UNIT COOLING COIL OUTLET NODE,COIL:COOLING:DX:VARIABLEREFRIGERANTFLOW,ZONE HVAC TERMINAL UNIT VARIABLE REFRIGERANT FLOW 1 COOLING COIL 8,Outlet,1
 Non-Parent Node Connection,PERIMETER_MID_ZN_2 ZN VRF TERMINAL UNIT INLET AIR NODE,COIL:COOLING:DX:VARIABLEREFRIGERANTFLOW,ZONE HVAC TERMINAL UNIT VARIABLE REFRIGERANT FLOW 1 COOLING COIL 6,Inlet,1
 Non-Parent Node Connection,PERIMETER_MID_ZN_2 ZN VRF TERMINAL UNIT COOLING COIL OUTLET NODE,COIL:COOLING:DX:VARIABLEREFRIGERANTFLOW,ZONE HVAC TERMINAL UNIT VARIABLE REFRIGERANT FLOW 1 COOLING COIL 6,Outlet,1
 Non-Parent Node Connection,PERIMETER_MID_ZN_3 ZN VRF TERMINAL UNIT INLET AIR NODE,COIL:COOLING:DX:VARIABLEREFRIGERANTFLOW,ZONE HVAC TERMINAL UNIT VARIABLE REFRIGERANT FLOW 1 COOLING COIL 7,Inlet,1
 Non-Parent Node Connection,PERIMETER_MID_ZN_3 ZN VRF TERMINAL UNIT COOLING COIL OUTLET NODE,COIL:COOLING:DX:VARIABLEREFRIGERANTFLOW,ZONE HVAC TERMINAL UNIT VARIABLE REFRIGERANT FLOW 1 COOLING COIL 7,Outlet,1
 Non-Parent Node Connection,PERIMETER_MID_ZN_4 ZN VRF TERMINAL UNIT INLET AIR NODE,COIL:COOLING:DX:VARIABLEREFRIGERANTFLOW,ZONE HVAC TERMINAL UNIT VARIABLE REFRIGERANT FLOW 1 COOLING COIL 5,Inlet,1
 Non-Parent Node Connection,PERIMETER_MID_ZN_4 ZN VRF TERMINAL UNIT COOLING COIL OUTLET NODE,COIL:COOLING:DX:VARIABLEREFRIGERANTFLOW,ZONE HVAC TERMINAL UNIT VARIABLE REFRIGERANT FLOW 1 COOLING COIL 5,Outlet,1
 Non-Parent Node Connection,PERIMETER_TOP_ZN_1 ZN VRF TERMINAL UNIT INLET AIR NODE,COIL:COOLING:DX:VARIABLEREFRIGERANTFLOW,ZONE HVAC TERMINAL UNIT VARIABLE REFRIGERANT FLOW 1 COOLING COIL 13,Inlet,1
 Non-Parent Node Connection,PERIMETER_TOP_ZN_1 ZN VRF TERMINAL UNIT COOLING COIL OUTLET NODE,COIL:COOLING:DX:VARIABLEREFRIGERANTFLOW,ZONE HVAC TERMINAL UNIT VARIABLE REFRIGERANT FLOW 1 COOLING COIL 13,Outlet,1
 Non-Parent Node Connection,PERIMETER_TOP_ZN_2 ZN VRF TERMINAL UNIT INLET AIR NODE,COIL:COOLING:DX:VARIABLEREFRIGERANTFLOW,ZONE HVAC TERMINAL UNIT VARIABLE REFRIGERANT FLOW 1 COOLING COIL 11,Inlet,1
 Non-Parent Node Connection,PERIMETER_TOP_ZN_2 ZN VRF TERMINAL UNIT COOLING COIL OUTLET NODE,COIL:COOLING:DX:VARIABLEREFRIGERANTFLOW,ZONE HVAC TERMINAL UNIT VARIABLE REFRIGERANT FLOW 1 COOLING COIL 11,Outlet,1
 Non-Parent Node Connection,PERIMETER_TOP_ZN_3 ZN VRF TERMINAL UNIT INLET AIR NODE,COIL:COOLING:DX:VARIABLEREFRIGERANTFLOW,ZONE HVAC TERMINAL UNIT VARIABLE REFRIGERANT FLOW 1 COOLING COIL 12,Inlet,1
 Non-Parent Node Connection,PERIMETER_TOP_ZN_3 ZN VRF TERMINAL UNIT COOLING COIL OUTLET NODE,COIL:COOLING:DX:VARIABLEREFRIGERANTFLOW,ZONE HVAC TERMINAL UNIT VARIABLE REFRIGERANT FLOW 1 COOLING COIL 12,Outlet,1
 Non-Parent Node Connection,PERIMETER_TOP_ZN_4 ZN VRF TERMINAL UNIT INLET AIR NODE,COIL:COOLING:DX:VARIABLEREFRIGERANTFLOW,ZONE HVAC TERMINAL UNIT VARIABLE REFRIGERANT FLOW 1 COOLING COIL 10,Inlet,1
 Non-Parent Node Connection,PERIMETER_TOP_ZN_4 ZN VRF TERMINAL UNIT COOLING COIL OUTLET NODE,COIL:COOLING:DX:VARIABLEREFRIGERANTFLOW,ZONE HVAC TERMINAL UNIT VARIABLE REFRIGERANT FLOW 1 COOLING COIL 10,Outlet,1
 Non-Parent Node Connection,CORE_BOTTOM ZN VRF TERMINAL UNIT COOLING COIL OUTLET NODE,COIL:HEATING:DX:VARIABLEREFRIGERANTFLOW,ZONE HVAC TERMINAL UNIT VARIABLE REFRIGERANT FLOW 1 HEATING COIL 4,Inlet,1
 Non-Parent Node Connection,CORE_BOTTOM ZN VRF TERMINAL UNIT HEATING COIL OUTLET NODE,COIL:HEATING:DX:VARIABLEREFRIGERANTFLOW,ZONE HVAC TERMINAL UNIT VARIABLE REFRIGERANT FLOW 1 HEATING COIL 4,Outlet,1
 Non-Parent Node Connection,CORE_MID ZN VRF TERMINAL UNIT COOLING COIL OUTLET NODE,COIL:HEATING:DX:VARIABLEREFRIGERANTFLOW,ZONE HVAC TERMINAL UNIT VARIABLE REFRIGERANT FLOW 1 HEATING COIL 9,Inlet,1
 Non-Parent Node Connection,CORE_MID ZN VRF TERMINAL UNIT HEATING COIL OUTLET NODE,COIL:HEATING:DX:VARIABLEREFRIGERANTFLOW,ZONE HVAC TERMINAL UNIT VARIABLE REFRIGERANT FLOW 1 HEATING COIL 9,Outlet,1
 Non-Parent Node Connection,CORE_TOP ZN VRF TERMINAL UNIT COOLING COIL OUTLET NODE,COIL:HEATING:DX:VARIABLEREFRIGERANTFLOW,ZONE HVAC TERMINAL UNIT VARIABLE REFRIGERANT FLOW 1 HEATING COIL 14,Inlet,1
 Non-Parent Node Connection,CORE_TOP ZN VRF TERMINAL UNIT HEATING COIL OUTLET NODE,COIL:HEATING:DX:VARIABLEREFRIGERANTFLOW,ZONE HVAC TERMINAL UNIT VARIABLE REFRIGERANT FLOW 1 HEATING COIL 14,Outlet,1
 Non-Parent Node Connection,PERIMETER_BOT_ZN_1 ZN VRF TERMINAL UNIT COOLING COIL OUTLET NODE,COIL:HEATING:DX:VARIABLEREFRIGERANTFLOW,ZONE HVAC TERMINAL UNIT VARIABLE REFRIGERANT FLOW 1 HEATING COIL 3,Inlet,1
 Non-Parent Node Connection,PERIMETER_BOT_ZN_1 ZN VRF TERMINAL UNIT HEATING COIL OUTLET NODE,COIL:HEATING:DX:VARIABLEREFRIGERANTFLOW,ZONE HVAC TERMINAL UNIT VARIABLE REFRIGERANT FLOW 1 HEATING COIL 3,Outlet,1
 Non-Parent Node Connection,PERIMETER_BOT_ZN_2 ZN VRF TERMINAL UNIT COOLING COIL OUTLET NODE,COIL:HEATING:DX:VARIABLEREFRIGERANTFLOW,ZONE HVAC TERMINAL UNIT VARIABLE REFRIGERANT FLOW 1 HEATING COIL 2,Inlet,1
 Non-Parent Node Connection,PERIMETER_BOT_ZN_2 ZN VRF TERMINAL UNIT HEATING COIL OUTLET NODE,COIL:HEATING:DX:VARIABLEREFRIGERANTFLOW,ZONE HVAC TERMINAL UNIT VARIABLE REFRIGERANT FLOW 1 HEATING COIL 2,Outlet,1
 Non-Parent Node Connection,PERIMETER_BOT_ZN_3 ZN VRF TERMINAL UNIT COOLING COIL OUTLET NODE,COIL:HEATING:DX:VARIABLEREFRIGERANTFLOW,ZONE HVAC TERMINAL UNIT VARIABLE REFRIGERANT FLOW 1 HEATING COIL,Inlet,1
 Non-Parent Node Connection,PERIMETER_BOT_ZN_3 ZN VRF TERMINAL UNIT HEATING COIL OUTLET NODE,COIL:HEATING:DX:VARIABLEREFRIGERANTFLOW,ZONE HVAC TERMINAL UNIT VARIABLE REFRIGERANT FLOW 1 HEATING COIL,Outlet,1
 Non-Parent Node Connection,PERIMETER_BOT_ZN_4 ZN VRF TERMINAL UNIT COOLING COIL OUTLET NODE,COIL:HEATING:DX:VARIABLEREFRIGERANTFLOW,ZONE HVAC TERMINAL UNIT VARIABLE REFRIGERANT FLOW 1 HEATING COIL 1,Inlet,1
 Non-Parent Node Connection,PERIMETER_BOT_ZN_4 ZN VRF TERMINAL UNIT HEATING COIL OUTLET NODE,COIL:HEATING:DX:VARIABLEREFRIGERANTFLOW,ZONE HVAC TERMINAL UNIT VARIABLE REFRIGERANT FLOW 1 HEATING COIL 1,Outlet,1
 Non-Parent Node Connection,PERIMETER_MID_ZN_1 ZN VRF TERMINAL UNIT COOLING COIL OUTLET NODE,COIL:HEATING:DX:VARIABLEREFRIGERANTFLOW,ZONE HVAC TERMINAL UNIT VARIABLE REFRIGERANT FLOW 1 HEATING COIL 8,Inlet,1
 Non-Parent Node Connection,PERIMETER_MID_ZN_1 ZN VRF TERMINAL UNIT HEATING COIL OUTLET NODE,COIL:HEATING:DX:VARIABLEREFRIGERANTFLOW,ZONE HVAC TERMINAL UNIT VARIABLE REFRIGERANT FLOW 1 HEATING COIL 8,Outlet,1
 Non-Parent Node Connection,PERIMETER_MID_ZN_2 ZN VRF TERMINAL UNIT COOLING COIL OUTLET NODE,COIL:HEATING:DX:VARIABLEREFRIGERANTFLOW,ZONE HVAC TERMINAL UNIT VARIABLE REFRIGERANT FLOW 1 HEATING COIL 6,Inlet,1
 Non-Parent Node Connection,PERIMETER_MID_ZN_2 ZN VRF TERMINAL UNIT HEATING COIL OUTLET NODE,COIL:HEATING:DX:VARIABLEREFRIGERANTFLOW,ZONE HVAC TERMINAL UNIT VARIABLE REFRIGERANT FLOW 1 HEATING COIL 6,Outlet,1
 Non-Parent Node Connection,PERIMETER_MID_ZN_3 ZN VRF TERMINAL UNIT COOLING COIL OUTLET NODE,COIL:HEATING:DX:VARIABLEREFRIGERANTFLOW,ZONE HVAC TERMINAL UNIT VARIABLE REFRIGERANT FLOW 1 HEATING COIL 7,Inlet,1
 Non-Parent Node Connection,PERIMETER_MID_ZN_3 ZN VRF TERMINAL UNIT HEATING COIL OUTLET NODE,COIL:HEATING:DX:VARIABLEREFRIGERANTFLOW,ZONE HVAC TERMINAL UNIT VARIABLE REFRIGERANT FLOW 1 HEATING COIL 7,Outlet,1
 Non-Parent Node Connection,PERIMETER_MID_ZN_4 ZN VRF TERMINAL UNIT COOLING COIL OUTLET NODE,COIL:HEATING:DX:VARIABLEREFRIGERANTFLOW,ZONE HVAC TERMINAL UNIT VARIABLE REFRIGERANT FLOW 1 HEATING COIL 5,Inlet,1
 Non-Parent Node Connection,PERIMETER_MID_ZN_4 ZN VRF TERMINAL UNIT HEATING COIL OUTLET NODE,COIL:HEATING:DX:VARIABLEREFRIGERANTFLOW,ZONE HVAC TERMINAL UNIT VARIABLE REFRIGERANT FLOW 1 HEATING COIL 5,Outlet,1
 Non-Parent Node Connection,PERIMETER_TOP_ZN_1 ZN VRF TERMINAL UNIT COOLING COIL OUTLET NODE,COIL:HEATING:DX:VARIABLEREFRIGERANTFLOW,ZONE HVAC TERMINAL UNIT VARIABLE REFRIGERANT FLOW 1 HEATING COIL 13,Inlet,1
 Non-Parent Node Connection,PERIMETER_TOP_ZN_1 ZN VRF TERMINAL UNIT HEATING COIL OUTLET NODE,COIL:HEATING:DX:VARIABLEREFRIGERANTFLOW,ZONE HVAC TERMINAL UNIT VARIABLE REFRIGERANT FLOW 1 HEATING COIL 13,Outlet,1
 Non-Parent Node Connection,PERIMETER_TOP_ZN_2 ZN VRF TERMINAL UNIT COOLING COIL OUTLET NODE,COIL:HEATING:DX:VARIABLEREFRIGERANTFLOW,ZONE HVAC TERMINAL UNIT VARIABLE REFRIGERANT FLOW 1 HEATING COIL 11,Inlet,1
 Non-Parent Node Connection,PERIMETER_TOP_ZN_2 ZN VRF TERMINAL UNIT HEATING COIL OUTLET NODE,COIL:HEATING:DX:VARIABLEREFRIGERANTFLOW,ZONE HVAC TERMINAL UNIT VARIABLE REFRIGERANT FLOW 1 HEATING COIL 11,Outlet,1
 Non-Parent Node Connection,PERIMETER_TOP_ZN_3 ZN VRF TERMINAL UNIT COOLING COIL OUTLET NODE,COIL:HEATING:DX:VARIABLEREFRIGERANTFLOW,ZONE HVAC TERMINAL UNIT VARIABLE REFRIGERANT FLOW 1 HEATING COIL 12,Inlet,1
 Non-Parent Node Connection,PERIMETER_TOP_ZN_3 ZN VRF TERMINAL UNIT HEATING COIL OUTLET NODE,COIL:HEATING:DX:VARIABLEREFRIGERANTFLOW,ZONE HVAC TERMINAL UNIT VARIABLE REFRIGERANT FLOW 1 HEATING COIL 12,Outlet,1
 Non-Parent Node Connection,PERIMETER_TOP_ZN_4 ZN VRF TERMINAL UNIT COOLING COIL OUTLET NODE,COIL:HEATING:DX:VARIABLEREFRIGERANTFLOW,ZONE HVAC TERMINAL UNIT VARIABLE REFRIGERANT FLOW 1 HEATING COIL 10,Inlet,1
 Non-Parent Node Connection,PERIMETER_TOP_ZN_4 ZN VRF TERMINAL UNIT HEATING COIL OUTLET NODE,COIL:HEATING:DX:VARIABLEREFRIGERANTFLOW,ZONE HVAC TERMINAL UNIT VARIABLE REFRIGERANT FLOW 1 HEATING COIL 10,Outlet,1
 Non-Parent Node Connection,5 ZONE DOAS DEMAND OUTLET NODE,AIRLOOPHVAC:ZONEMIXER,AIR LOOP HVAC ZONE MIXER 1,Outlet,1
 Non-Parent Node Connection,PERIMETER_BOT_ZN_3 ZN RETURN AIR NODE,AIRLOOPHVAC:ZONEMIXER,AIR LOOP HVAC ZONE MIXER 1,Inlet,1
 Non-Parent Node Connection,PERIMETER_BOT_ZN_4 ZN RETURN AIR NODE,AIRLOOPHVAC:ZONEMIXER,AIR LOOP HVAC ZONE MIXER 1,Inlet,1
 Non-Parent Node Connection,PERIMETER_BOT_ZN_2 ZN RETURN AIR NODE,AIRLOOPHVAC:ZONEMIXER,AIR LOOP HVAC ZONE MIXER 1,Inlet,1
 Non-Parent Node Connection,PERIMETER_BOT_ZN_1 ZN RETURN AIR NODE,AIRLOOPHVAC:ZONEMIXER,AIR LOOP HVAC ZONE MIXER 1,Inlet,1
 Non-Parent Node Connection,CORE_BOTTOM ZN RETURN AIR NODE,AIRLOOPHVAC:ZONEMIXER,AIR LOOP HVAC ZONE MIXER 1,Inlet,1
 Non-Parent Node Connection,5 ZONE DOAS 1 DEMAND OUTLET NODE,AIRLOOPHVAC:ZONEMIXER,AIR LOOP HVAC ZONE MIXER 2,Outlet,1
 Non-Parent Node Connection,PERIMETER_MID_ZN_4 ZN RETURN AIR NODE,AIRLOOPHVAC:ZONEMIXER,AIR LOOP HVAC ZONE MIXER 2,Inlet,1
 Non-Parent Node Connection,PERIMETER_MID_ZN_2 ZN RETURN AIR NODE,AIRLOOPHVAC:ZONEMIXER,AIR LOOP HVAC ZONE MIXER 2,Inlet,1
 Non-Parent Node Connection,PERIMETER_MID_ZN_3 ZN RETURN AIR NODE,AIRLOOPHVAC:ZONEMIXER,AIR LOOP HVAC ZONE MIXER 2,Inlet,1
 Non-Parent Node Connection,PERIMETER_MID_ZN_1 ZN RETURN AIR NODE,AIRLOOPHVAC:ZONEMIXER,AIR LOOP HVAC ZONE MIXER 2,Inlet,1
 Non-Parent Node Connection,CORE_MID ZN RETURN AIR NODE,AIRLOOPHVAC:ZONEMIXER,AIR LOOP HVAC ZONE MIXER 2,Inlet,1
 Non-Parent Node Connection,5 ZONE DOAS 2 DEMAND OUTLET NODE,AIRLOOPHVAC:ZONEMIXER,AIR LOOP HVAC ZONE MIXER 3,Outlet,1
 Non-Parent Node Connection,PERIMETER_TOP_ZN_4 ZN RETURN AIR NODE,AIRLOOPHVAC:ZONEMIXER,AIR LOOP HVAC ZONE MIXER 3,Inlet,1
 Non-Parent Node Connection,PERIMETER_TOP_ZN_2 ZN RETURN AIR NODE,AIRLOOPHVAC:ZONEMIXER,AIR LOOP HVAC ZONE MIXER 3,Inlet,1
 Non-Parent Node Connection,PERIMETER_TOP_ZN_3 ZN RETURN AIR NODE,AIRLOOPHVAC:ZONEMIXER,AIR LOOP HVAC ZONE MIXER 3,Inlet,1
 Non-Parent Node Connection,PERIMETER_TOP_ZN_1 ZN RETURN AIR NODE,AIRLOOPHVAC:ZONEMIXER,AIR LOOP HVAC ZONE MIXER 3,Inlet,1
 Non-Parent Node Connection,CORE_TOP ZN RETURN AIR NODE,AIRLOOPHVAC:ZONEMIXER,AIR LOOP HVAC ZONE MIXER 3,Inlet,1
 Non-Parent Node Connection,5 ZONE DOAS MIXED AIR NODE,OUTDOORAIR:MIXER,5 ZONE DOAS OA SYSTEM OUTDOOR AIR MIXER,Outlet,1
 Non-Parent Node Connection,5 ZONE DOAS HEAT EXCHANGER PRIMARY OUTLET AIR NODE,OUTDOORAIR:MIXER,5 ZONE DOAS OA SYSTEM OUTDOOR AIR MIXER,Inlet,1
 Non-Parent Node Connection,5 ZONE DOAS HEAT EXCHANGER SECONDARY INLET AIR NODE,OUTDOORAIR:MIXER,5 ZONE DOAS OA SYSTEM OUTDOOR AIR MIXER,ReliefAir,1
 Non-Parent Node Connection,DOAS EXHAUST FAN OUTLET AIR NODE,OUTDOORAIR:MIXER,5 ZONE DOAS OA SYSTEM OUTDOOR AIR MIXER,Inlet,1
 Non-Parent Node Connection,5 ZONE DOAS 1 MIXED AIR NODE,OUTDOORAIR:MIXER,5 ZONE DOAS 1 OA SYSTEM OUTDOOR AIR MIXER,Outlet,1
 Non-Parent Node Connection,5 ZONE DOAS 1 HEAT EXCHANGER PRIMARY OUTLET AIR NODE,OUTDOORAIR:MIXER,5 ZONE DOAS 1 OA SYSTEM OUTDOOR AIR MIXER,Inlet,1
 Non-Parent Node Connection,5 ZONE DOAS 1 HEAT EXCHANGER SECONDARY INLET AIR NODE,OUTDOORAIR:MIXER,5 ZONE DOAS 1 OA SYSTEM OUTDOOR AIR MIXER,ReliefAir,1
 Non-Parent Node Connection,DOAS EXHAUST FAN 1 OUTLET AIR NODE,OUTDOORAIR:MIXER,5 ZONE DOAS 1 OA SYSTEM OUTDOOR AIR MIXER,Inlet,1
 Non-Parent Node Connection,5 ZONE DOAS 2 MIXED AIR NODE,OUTDOORAIR:MIXER,5 ZONE DOAS 2 OA SYSTEM OUTDOOR AIR MIXER,Outlet,1
 Non-Parent Node Connection,5 ZONE DOAS 2 HEAT EXCHANGER PRIMARY OUTLET AIR NODE,OUTDOORAIR:MIXER,5 ZONE DOAS 2 OA SYSTEM OUTDOOR AIR MIXER,Inlet,1
 Non-Parent Node Connection,5 ZONE DOAS 2 HEAT EXCHANGER SECONDARY INLET AIR NODE,OUTDOORAIR:MIXER,5 ZONE DOAS 2 OA SYSTEM OUTDOOR AIR MIXER,ReliefAir,1
 Non-Parent Node Connection,DOAS EXHAUST FAN 2 OUTLET AIR NODE,OUTDOORAIR:MIXER,5 ZONE DOAS 2 OA SYSTEM OUTDOOR AIR MIXER,Inlet,1
 Non-Parent Node Connection,5 ZONE DOAS MIXED AIR NODE,CONTROLLER:OUTDOORAIR,5 ZONE DOAS OUTDOOR AIR CONTROLLER,Sensor,1
 Non-Parent Node Connection,5 ZONE DOAS OUTDOOR AIR NODE,CONTROLLER:OUTDOORAIR,5 ZONE DOAS OUTDOOR AIR CONTROLLER,Actuator,1
 Non-Parent Node Connection,5 ZONE DOAS HEAT EXCHANGER SECONDARY INLET AIR NODE,CONTROLLER:OUTDOORAIR,5 ZONE DOAS OUTDOOR AIR CONTROLLER,Actuator,1
 Non-Parent Node Connection,DOAS EXHAUST FAN OUTLET AIR NODE,CONTROLLER:OUTDOORAIR,5 ZONE DOAS OUTDOOR AIR CONTROLLER,Sensor,1
 Non-Parent Node Connection,5 ZONE DOAS 1 MIXED AIR NODE,CONTROLLER:OUTDOORAIR,5 ZONE DOAS 1 OUTDOOR AIR CONTROLLER,Sensor,1
 Non-Parent Node Connection,5 ZONE DOAS 1 OUTDOOR AIR NODE,CONTROLLER:OUTDOORAIR,5 ZONE DOAS 1 OUTDOOR AIR CONTROLLER,Actuator,1
 Non-Parent Node Connection,5 ZONE DOAS 1 HEAT EXCHANGER SECONDARY INLET AIR NODE,CONTROLLER:OUTDOORAIR,5 ZONE DOAS 1 OUTDOOR AIR CONTROLLER,Actuator,1
 Non-Parent Node Connection,DOAS EXHAUST FAN 1 OUTLET AIR NODE,CONTROLLER:OUTDOORAIR,5 ZONE DOAS 1 OUTDOOR AIR CONTROLLER,Sensor,1
 Non-Parent Node Connection,5 ZONE DOAS 2 MIXED AIR NODE,CONTROLLER:OUTDOORAIR,5 ZONE DOAS 2 OUTDOOR AIR CONTROLLER,Sensor,1
 Non-Parent Node Connection,5 ZONE DOAS 2 OUTDOOR AIR NODE,CONTROLLER:OUTDOORAIR,5 ZONE DOAS 2 OUTDOOR AIR CONTROLLER,Actuator,1
 Non-Parent Node Connection,5 ZONE DOAS 2 HEAT EXCHANGER SECONDARY INLET AIR NODE,CONTROLLER:OUTDOORAIR,5 ZONE DOAS 2 OUTDOOR AIR CONTROLLER,Actuator,1
 Non-Parent Node Connection,DOAS EXHAUST FAN 2 OUTLET AIR NODE,CONTROLLER:OUTDOORAIR,5 ZONE DOAS 2 OUTDOOR AIR CONTROLLER,Sensor,1
 Non-Parent Node Connection,5 ZONE DOAS OUTDOOR AIR NODE,HEATEXCHANGER:AIRTOAIR:SENSIBLEANDLATENT,5 ZONE DOAS HEAT EXCHANGER,Inlet,1
 Non-Parent Node Connection,5 ZONE DOAS HEAT EXCHANGER PRIMARY OUTLET AIR NODE,HEATEXCHANGER:AIRTOAIR:SENSIBLEANDLATENT,5 ZONE DOAS HEAT EXCHANGER,Outlet,1
 Non-Parent Node Connection,5 ZONE DOAS HEAT EXCHANGER SECONDARY INLET AIR NODE,HEATEXCHANGER:AIRTOAIR:SENSIBLEANDLATENT,5 ZONE DOAS HEAT EXCHANGER,Inlet,2
 Non-Parent Node Connection,5 ZONE DOAS RELIEF AIR NODE,HEATEXCHANGER:AIRTOAIR:SENSIBLEANDLATENT,5 ZONE DOAS HEAT EXCHANGER,Outlet,2
 Non-Parent Node Connection,5 ZONE DOAS 1 OUTDOOR AIR NODE,HEATEXCHANGER:AIRTOAIR:SENSIBLEANDLATENT,5 ZONE DOAS 1 HEAT EXCHANGER,Inlet,1
 Non-Parent Node Connection,5 ZONE DOAS 1 HEAT EXCHANGER PRIMARY OUTLET AIR NODE,HEATEXCHANGER:AIRTOAIR:SENSIBLEANDLATENT,5 ZONE DOAS 1 HEAT EXCHANGER,Outlet,1
 Non-Parent Node Connection,5 ZONE DOAS 1 HEAT EXCHANGER SECONDARY INLET AIR NODE,HEATEXCHANGER:AIRTOAIR:SENSIBLEANDLATENT,5 ZONE DOAS 1 HEAT EXCHANGER,Inlet,2
 Non-Parent Node Connection,5 ZONE DOAS 1 RELIEF AIR NODE,HEATEXCHANGER:AIRTOAIR:SENSIBLEANDLATENT,5 ZONE DOAS 1 HEAT EXCHANGER,Outlet,2
 Non-Parent Node Connection,5 ZONE DOAS 2 OUTDOOR AIR NODE,HEATEXCHANGER:AIRTOAIR:SENSIBLEANDLATENT,5 ZONE DOAS 2 HEAT EXCHANGER,Inlet,1
 Non-Parent Node Connection,5 ZONE DOAS 2 HEAT EXCHANGER PRIMARY OUTLET AIR NODE,HEATEXCHANGER:AIRTOAIR:SENSIBLEANDLATENT,5 ZONE DOAS 2 HEAT EXCHANGER,Outlet,1
 Non-Parent Node Connection,5 ZONE DOAS 2 HEAT EXCHANGER SECONDARY INLET AIR NODE,HEATEXCHANGER:AIRTOAIR:SENSIBLEANDLATENT,5 ZONE DOAS 2 HEAT EXCHANGER,Inlet,2
 Non-Parent Node Connection,5 ZONE DOAS 2 RELIEF AIR NODE,HEATEXCHANGER:AIRTOAIR:SENSIBLEANDLATENT,5 ZONE DOAS 2 HEAT EXCHANGER,Outlet,2
 Non-Parent Node Connection,5 ZONE DOAS HTG COIL OUTLET AIR NODE,COIL:HEATING:ELECTRIC,5 ZONE DOAS BACKUP HTG COIL,Inlet,1
 Non-Parent Node Connection,5 ZONE DOAS BACKUP HTG COIL OUTLET AIR NODE,COIL:HEATING:ELECTRIC,5 ZONE DOAS BACKUP HTG COIL,Outlet,1
 Non-Parent Node Connection,5 ZONE DOAS BACKUP HTG COIL OUTLET AIR NODE,COIL:HEATING:ELECTRIC,5 ZONE DOAS BACKUP HTG COIL,Sensor,1
 Non-Parent Node Connection,5 ZONE DOAS 1 HTG COIL OUTLET AIR NODE,COIL:HEATING:ELECTRIC,5 ZONE DOAS 1 BACKUP HTG COIL,Inlet,1
 Non-Parent Node Connection,5 ZONE DOAS 1 BACKUP HTG COIL OUTLET AIR NODE,COIL:HEATING:ELECTRIC,5 ZONE DOAS 1 BACKUP HTG COIL,Outlet,1
 Non-Parent Node Connection,5 ZONE DOAS 1 BACKUP HTG COIL OUTLET AIR NODE,COIL:HEATING:ELECTRIC,5 ZONE DOAS 1 BACKUP HTG COIL,Sensor,1
 Non-Parent Node Connection,5 ZONE DOAS 2 HTG COIL OUTLET AIR NODE,COIL:HEATING:ELECTRIC,5 ZONE DOAS 2 BACKUP HTG COIL,Inlet,1
 Non-Parent Node Connection,5 ZONE DOAS 2 BACKUP HTG COIL OUTLET AIR NODE,COIL:HEATING:ELECTRIC,5 ZONE DOAS 2 BACKUP HTG COIL,Outlet,1
 Non-Parent Node Connection,5 ZONE DOAS 2 BACKUP HTG COIL OUTLET AIR NODE,COIL:HEATING:ELECTRIC,5 ZONE DOAS 2 BACKUP HTG COIL,Sensor,1
 Non-Parent Node Connection,MAIN SERVICE WATER LOOP SUPPLY INLET NODE,PUMP:CONSTANTSPEED,SERVICE WATER LOOP PUMP,Inlet,1
 Non-Parent Node Connection,SERVICE WATER LOOP PUMP OUTLET WATER NODE,PUMP:CONSTANTSPEED,SERVICE WATER LOOP PUMP,Outlet,1
