Program Version,EnergyPlus, Version 9.1.0-08d2e308bb, YMD=2019.04.09 23:07
! <Version>, Version ID
 Version, 9.1
! <Timesteps per Hour>, #TimeSteps, Minutes per TimeStep {minutes}
 Timesteps per Hour,  6, 10
! <System Convergence Limits>, Minimum System TimeStep {minutes}, Max HVAC Iterations, Minimum Plant Iterations, Maximum Plant Iterations
 System Convergence Limits, 2, 25, 2, 8
! <Simulation Control>, Do Zone Sizing, Do System Sizing, Do Plant Sizing, Do Design Days, Do Weather Simulation, Do HVAC Sizing Simulation
 Simulation Control, Yes, Yes, Yes, No, Yes, No
! <Output Reporting Tolerances>, Tolerance for Time Heating Setpoint Not Met, Tolerance for Zone Cooling Setpoint Not Met Time
 Output Reporting Tolerances, 0.556, 0.556, 
! <Site:GroundTemperature:BuildingSurface>,Jan{C},Feb{C},Mar{C},Apr{C},May{C},Jun{C},Jul{C},Aug{C},Sep{C},Oct{C},Nov{C},Dec{C}
 Site:GroundTemperature:BuildingSurface,  20.49,  20.43,  20.44,  20.50,  20.59,  22.83,  23.24,  23.33,  23.36,  21.14,  20.78,  20.61
! <Site:GroundTemperature:FCfactorMethod>,Jan{C},Feb{C},Mar{C},Apr{C},May{C},Jun{C},Jul{C},Aug{C},Sep{C},Oct{C},Nov{C},Dec{C}
 Site:GroundTemperature:FCfactorMethod,  -1.89,  -3.06,  -0.99,   2.23,  10.68,  17.20,  21.60,  22.94,  20.66,  15.60,   8.83,   2.56
! <Site:GroundTemperature:Shallow>,Jan{C},Feb{C},Mar{C},Apr{C},May{C},Jun{C},Jul{C},Aug{C},Sep{C},Oct{C},Nov{C},Dec{C}
 Site:GroundTemperature:Shallow,  13.00,  13.00,  13.00,  13.00,  13.00,  13.00,  13.00,  13.00,  13.00,  13.00,  13.00,  13.00
! <Site:GroundTemperature:Deep>,Jan{C},Feb{C},Mar{C},Apr{C},May{C},Jun{C},Jul{C},Aug{C},Sep{C},Oct{C},Nov{C},Dec{C}
 Site:GroundTemperature:Deep,  16.00,  16.00,  16.00,  16.00,  16.00,  16.00,  16.00,  16.00,  16.00,  16.00,  16.00,  16.00
! <Site:GroundReflectance>,Jan{dimensionless},Feb{dimensionless},Mar{dimensionless},Apr{dimensionless},May{dimensionless},Jun{dimensionless},Jul{dimensionless},Aug{dimensionless},Sep{dimensionless},Oct{dimensionless},Nov{dimensionless},Dec{dimensionless}
 Site:GroundReflectance,  0.20,  0.20,  0.20,  0.20,  0.20,  0.20,  0.20,  0.20,  0.20,  0.20,  0.20,  0.20
! <Site:GroundReflectance:SnowModifier>, Normal, Daylighting {dimensionless}
 Site:GroundReflectance:SnowModifier,   1.000,   1.000
! <Site:GroundReflectance:Snow>,Jan{dimensionless},Feb{dimensionless},Mar{dimensionless},Apr{dimensionless},May{dimensionless},Jun{dimensionless},Jul{dimensionless},Aug{dimensionless},Sep{dimensionless},Oct{dimensionless},Nov{dimensionless},Dec{dimensionless}
 Site:GroundReflectance:Snow,  0.20,  0.20,  0.20,  0.20,  0.20,  0.20,  0.20,  0.20,  0.20,  0.20,  0.20,  0.20
! <Site:GroundReflectance:Snow:Daylighting>,Jan{dimensionless},Feb{dimensionless},Mar{dimensionless},Apr{dimensionless},May{dimensionless},Jun{dimensionless},Jul{dimensionless},Aug{dimensionless},Sep{dimensionless},Oct{dimensionless},Nov{dimensionless},Dec{dimensionless}
 Site:GroundReflectance:Snow:Daylighting,  0.20,  0.20,  0.20,  0.20,  0.20,  0.20,  0.20,  0.20,  0.20,  0.20,  0.20,  0.20
! <Environment:Weather Station>,Wind Sensor Height Above Ground {m},Wind Speed Profile Exponent {},Wind Speed Profile Boundary Layer Thickness {m},Air Temperature Sensor Height Above Ground {m},Wind Speed Modifier Coefficient-Internal,Temperature Modifier Coefficient-Internal
Environment:Weather Station,10.000,0.140,270.000,1.500,1.586,9.750E-003
! <Site:Location>, Location Name, Latitude {N+/S- Deg}, Longitude {E+/W- Deg},  Time Zone Number {GMT+/-}, Elevation {m},  Standard Pressure at Elevation {Pa}, Standard RhoAir at Elevation
Site:Location,Chicago Ohare Intl Ap IL USA TMY3 WMO#=725300,41.98,-87.92,-6.00,201.00,98934,1.1759
! <Site Water Mains Temperature Information>,Calculation Method{},Water Mains Temperature Schedule Name{},Annual Average Outdoor Air Temperature{C},Maximum Difference In Monthly Average Outdoor Air Temperatures{deltaC},Fixed Default Water Mains Temperature{C}
Site Water Mains Temperature Information,Correlation,NA,9.93,28.70,NA
! <Building Information>, Building Name,North Axis {deg},Terrain,  Loads Convergence Tolerance Value,Temperature Convergence Tolerance Value,  Solar Distribution,Maximum Number of Warmup Days,Minimum Number of Warmup Days
 Building Information,-MediumOffice-ASHRAE 169-2006-5A created: 2018-10-22 12:11:34 -0600,0.000,City,4.00000E-002,0.20000,FullInteriorAndExterior,25,6
! <Inside Convection Algorithm>, Algorithm {Simple | TARP | CeilingDiffuser | AdaptiveConvectionAlgorithm}
Inside Convection Algorithm,TARP
! <Outside Convection Algorithm>, Algorithm {SimpleCombined | TARP | MoWitt | DOE-2 | AdaptiveConvectionAlgorithm}
Outside Convection Algorithm,TARP
! <Sky Radiance Distribution>, Value {Anisotropic}
Sky Radiance Distribution,Anisotropic
! <Zone Air Solution Algorithm>, Value {ThirdOrderBackwardDifference | AnalyticalSolution | EulerMethod}
 Zone Air Solution Algorithm, ThirdOrderBackwardDifference
! <Zone Air Carbon Dioxide Balance Simulation>, Simulation {Yes/No}, Carbon Dioxide Concentration
 Zone Air Carbon Dioxide Balance Simulation, No,N/A
! <Zone Air Generic Contaminant Balance Simulation>, Simulation {Yes/No}, Generic Contaminant Concentration
 Zone Air Generic Contaminant Balance Simulation, No,N/A
! <Zone Air Mass Flow Balance Simulation>, Enforce Mass Balance, Adjust Zone Mixing, Adjust Zone Infiltration {AddInfiltration | AdjustInfiltration | None}, Infiltration Zones {MixingSourceZonesOnly | AllZones}
 Zone Air Mass Flow Balance Simulation, No,N/A,N/A,N/A
! <HVACSystemRootFindingAlgorithm>, Value {RegulaFalsi | Bisection | BisectionThenRegulaFalsi | RegulaFalsiThenBisection}
 HVACSystemRootFindingAlgorithm, RegulaFalsi
! <Environment:Site Atmospheric Variation>,Wind Speed Profile Exponent {},Wind Speed Profile Boundary Layer Thickness {m},Air Temperature Gradient Coefficient {K/m}
Environment:Site Atmospheric Variation,0.330,460.000,6.500000E-003
! <Surface Geometry>,Starting Corner,Vertex Input Direction,Coordinate System,Daylight Reference Point Coordinate System,Rectangular (Simple) Surface Coordinate System
 Surface Geometry,UpperLeftCorner,Counterclockwise,RelativeCoordinateSystem,RelativeCoordinateSystem,RelativeToZoneOrigin
! <Surface Heat Transfer Algorithm>, Value {CTF - ConductionTransferFunction | EMPD - MoisturePenetrationDepthConductionTransferFunction | CondFD - ConductionFiniteDifference | HAMT - CombinedHeatAndMoistureFiniteElement} - Description,Inside Surface Max Temperature Limit{C}, Surface Convection Coefficient Lower Limit {W/m2-K}, Surface Convection Coefficient Upper Limit {W/m2-K}
Surface Heat Transfer Algorithm, CTF - ConductionTransferFunction,200,0.10,1000.0
! <Shading Summary>, Number of Fixed Detached Shades, Number of Building Detached Shades, Number of Attached Shades
 Shading Summary,0,0,0
! <Zone Summary>, Number of Zones, Number of Zone Surfaces, Number of SubSurfaces
 Zone Summary,18,155,12
! <Zone Information>,Zone Name,North Axis {deg},Origin X-Coordinate {m},Origin Y-Coordinate {m},Origin Z-Coordinate {m},Centroid X-Coordinate {m},Centroid Y-Coordinate {m},Centroid Z-Coordinate {m},Type,Zone Multiplier,Zone List Multiplier,Minimum X {m},Maximum X {m},Minimum Y {m},Maximum Y {m},Minimum Z {m},Maximum Z {m},Ceiling Height {m},Volume {m3},Zone Inside Convection Algorithm {Simple-Detailed-CeilingDiffuser-TrombeWall},Zone Outside Convection Algorithm {Simple-Detailed-Tarp-MoWitt-DOE-2-BLAST}, Floor Area {m2},Exterior Gross Wall Area {m2},Exterior Net Wall Area {m2},Exterior Window Area {m2}, Number of Surfaces, Number of SubSurfaces, Number of Shading SubSurfaces,  Part of Total Building Area
 Zone Information, CORE_BOTTOM ZN,0.0,0.00,0.00,0.00,24.96,16.64,1.37,1,1,1,4.57,45.34,4.57,28.70,0.00,2.74,2.74,2698.04,TARP,TARP,983.54,0.00,0.00,0.00,6,0,0,Yes
 Zone Information, CORE_MID ZN,0.0,0.00,0.00,0.00,24.96,16.64,5.33,1,1,1,4.57,45.34,4.57,28.70,3.96,6.71,2.74,2698.04,TARP,TARP,983.54,0.00,0.00,0.00,6,0,0,Yes
 Zone Information, CORE_TOP ZN,0.0,0.00,0.00,0.00,24.96,16.64,9.30,1,1,1,4.57,45.34,4.57,28.70,7.92,10.67,2.74,2698.04,TARP,TARP,983.54,0.00,0.00,0.00,6,0,0,Yes
 Zone Information, FIRSTFLOOR_PLENUM ZN,0.0,0.00,0.00,0.00,24.96,16.64,3.35,1,1,1,0.00,49.91,0.00,33.27,2.74,3.96,1.22,2024.76,TARP,TARP,1660.73,202.84,202.84,0.00,14,0,0,No
 Zone Information, MIDFLOOR_PLENUM ZN,0.0,0.00,0.00,0.00,24.96,16.64,7.32,1,1,1,0.00,49.91,0.00,33.27,6.71,7.92,1.22,2024.76,TARP,TARP,1660.73,202.84,202.84,0.00,14,0,0,No
 Zone Information, PERIMETER_BOT_ZN_1 ZN,0.0,0.00,0.00,0.00,24.96,2.16,1.37,1,1,1,0.00,49.91,0.00,4.57,0.00,2.74,2.74,568.77,TARP,TARP,207.34,136.92,71.63,65.28,6,1,0,Yes
 Zone Information, PERIMETER_BOT_ZN_2 ZN,0.0,0.00,0.00,0.00,47.82,16.64,1.37,1,1,1,45.34,49.91,0.00,33.27,0.00,2.74,2.74,360.08,TARP,TARP,131.26,91.28,47.75,43.52,6,1,0,Yes
 Zone Information, PERIMETER_BOT_ZN_3 ZN,0.0,0.00,0.00,0.00,24.96,31.11,1.37,1,1,1,0.00,49.91,28.70,33.27,0.00,2.74,2.74,568.77,TARP,TARP,207.34,136.92,71.63,65.28,6,1,0,Yes
 Zone Information, PERIMETER_BOT_ZN_4 ZN,0.0,0.00,0.00,0.00,2.09,16.64,1.37,1,1,1,0.00,4.57,0.00,33.27,0.00,2.74,2.74,360.05,TARP,TARP,131.25,91.28,47.75,43.52,6,1,0,Yes
 Zone Information, PERIMETER_MID_ZN_1 ZN,0.0,0.00,0.00,0.00,24.96,2.16,5.33,1,1,1,0.00,49.91,0.00,4.57,3.96,6.71,2.74,568.77,TARP,TARP,207.34,136.92,71.63,65.28,6,1,0,Yes
 Zone Information, PERIMETER_MID_ZN_2 ZN,0.0,0.00,0.00,0.00,47.82,16.64,5.33,1,1,1,45.34,49.91,0.00,33.27,3.96,6.71,2.74,360.08,TARP,TARP,131.26,91.28,47.75,43.52,6,1,0,Yes
 Zone Information, PERIMETER_MID_ZN_3 ZN,0.0,0.00,0.00,0.00,24.96,31.11,5.33,1,1,1,0.00,49.91,28.70,33.27,3.96,6.71,2.74,568.77,TARP,TARP,207.34,136.92,71.63,65.28,6,1,0,Yes
 Zone Information, PERIMETER_MID_ZN_4 ZN,0.0,0.00,0.00,0.00,2.09,16.64,5.33,1,1,1,0.00,4.57,0.00,33.27,3.96,6.71,2.74,360.05,TARP,TARP,131.25,91.28,47.75,43.52,6,1,0,Yes
 Zone Information, PERIMETER_TOP_ZN_1 ZN,0.0,0.00,0.00,0.00,24.96,2.16,9.30,1,1,1,0.00,49.91,0.00,4.57,7.92,10.67,2.74,568.77,TARP,TARP,207.34,136.92,71.63,65.28,6,1,0,Yes
 Zone Information, PERIMETER_TOP_ZN_2 ZN,0.0,0.00,0.00,0.00,47.82,16.64,9.30,1,1,1,45.34,49.91,0.00,33.27,7.92,10.67,2.74,360.08,TARP,TARP,131.26,91.28,47.75,43.52,6,1,0,Yes
 Zone Information, PERIMETER_TOP_ZN_3 ZN,0.0,0.00,0.00,0.00,24.96,31.11,9.30,1,1,1,0.00,49.91,28.70,33.27,7.92,10.67,2.74,568.77,TARP,TARP,207.34,136.92,71.63,65.28,6,1,0,Yes
 Zone Information, PERIMETER_TOP_ZN_4 ZN,0.0,0.00,0.00,0.00,2.09,16.64,9.30,1,1,1,0.00,4.57,0.00,33.27,7.92,10.67,2.74,360.05,TARP,TARP,131.25,91.28,47.75,43.52,6,1,0,Yes
 Zone Information, TOPFLOOR_PLENUM ZN,0.0,0.00,0.00,0.00,24.96,16.64,11.28,1,1,1,0.00,49.91,0.00,33.27,10.67,11.89,1.22,2024.76,TARP,TARP,1660.73,202.84,202.84,0.00,10,0,0,No
! <Zone Internal Gains Nominal>,Zone Name, Floor Area {m2},# Occupants,Area per Occupant {m2/person},Occupant per Area {person/m2},Interior Lighting {W/m2},Electric Load {W/m2},Gas Load {W/m2},Other Load {W/m2},Hot Water Eq {W/m2},Steam Equipment {W/m2},Sum Loads per Area {W/m2},Outdoor Controlled Baseboard Heat
 Zone Internal Gains Nominal, CORE_BOTTOM ZN,983.54,52.9,18.581,5.382E-002,8.826,40.849,0.000,0.000,0.000,0.000,49.676,No
 Zone Internal Gains Nominal, CORE_MID ZN,983.54,52.9,18.581,5.382E-002,8.826,8.073,0.000,0.000,0.000,0.000,16.899,No
 Zone Internal Gains Nominal, CORE_TOP ZN,983.54,52.9,18.581,5.382E-002,8.826,8.073,0.000,0.000,0.000,0.000,16.899,No
 Zone Internal Gains Nominal, FIRSTFLOOR_PLENUM ZN,1660.73,0.0,N/A,0.000,0.000,0.000,0.000,0.000,0.000,0.000,0.000,No
 Zone Internal Gains Nominal, MIDFLOOR_PLENUM ZN,1660.73,0.0,N/A,0.000,0.000,0.000,0.000,0.000,0.000,0.000,0.000,No
 Zone Internal Gains Nominal, PERIMETER_BOT_ZN_1 ZN,207.34,11.2,18.581,5.382E-002,8.826,8.073,0.000,0.000,0.000,0.000,16.899,No
 Zone Internal Gains Nominal, PERIMETER_BOT_ZN_2 ZN,131.26,7.1,18.581,5.382E-002,8.826,8.073,0.000,0.000,0.000,0.000,16.899,No
 Zone Internal Gains Nominal, PERIMETER_BOT_ZN_3 ZN,207.34,11.2,18.581,5.382E-002,8.826,8.073,0.000,0.000,0.000,0.000,16.899,No
 Zone Internal Gains Nominal, PERIMETER_BOT_ZN_4 ZN,131.25,7.1,18.581,5.382E-002,8.826,8.073,0.000,0.000,0.000,0.000,16.899,No
 Zone Internal Gains Nominal, PERIMETER_MID_ZN_1 ZN,207.34,11.2,18.581,5.382E-002,8.826,8.073,0.000,0.000,0.000,0.000,16.899,No
 Zone Internal Gains Nominal, PERIMETER_MID_ZN_2 ZN,131.26,7.1,18.581,5.382E-002,8.826,8.073,0.000,0.000,0.000,0.000,16.899,No
 Zone Internal Gains Nominal, PERIMETER_MID_ZN_3 ZN,207.34,11.2,18.581,5.382E-002,8.826,8.073,0.000,0.000,0.000,0.000,16.899,No
 Zone Internal Gains Nominal, PERIMETER_MID_ZN_4 ZN,131.25,7.1,18.581,5.382E-002,8.826,8.073,0.000,0.000,0.000,0.000,16.899,No
 Zone Internal Gains Nominal, PERIMETER_TOP_ZN_1 ZN,207.34,11.2,18.581,5.382E-002,8.826,8.073,0.000,0.000,0.000,0.000,16.899,No
 Zone Internal Gains Nominal, PERIMETER_TOP_ZN_2 ZN,131.26,7.1,18.581,5.382E-002,8.826,8.073,0.000,0.000,0.000,0.000,16.899,No
 Zone Internal Gains Nominal, PERIMETER_TOP_ZN_3 ZN,207.34,11.2,18.581,5.382E-002,8.826,8.073,0.000,0.000,0.000,0.000,16.899,No
 Zone Internal Gains Nominal, PERIMETER_TOP_ZN_4 ZN,131.25,7.1,18.581,5.382E-002,8.826,8.073,0.000,0.000,0.000,0.000,16.899,No
 Zone Internal Gains Nominal, TOPFLOOR_PLENUM ZN,1660.73,0.0,N/A,0.000,0.000,0.000,0.000,0.000,0.000,0.000,0.000,No
! <People Internal Gains Nominal>,Name,Schedule Name,Zone Name,Zone Floor Area {m2},# Zone Occupants,Number of People {},People/Floor Area {person/m2},Floor Area per person {m2/person},Fraction Radiant,Fraction Convected,Sensible Fraction Calculation,Activity level,ASHRAE 55 Warnings,Carbon Dioxide Generation Rate,Nominal Minimum Number of People,Nominal Maximum Number of People
 People Internal Gains Nominal, CORE_BOTTOM ZN OFFICE WHOLEBUILDING - MD OFFICE PEOPLE,OFFICEMEDIUM BLDG_OCC_SCH,CORE_BOTTOM ZN,983.54,52.9,52.9,5.382E-002,18.581,0.300,0.700,AutoCalculate,OFFICEMEDIUM ACTIVITY_SCH,No,3.8200E-008,0,53
 People Internal Gains Nominal, CORE_MID ZN OFFICE WHOLEBUILDING - MD OFFICE PEOPLE,OFFICEMEDIUM BLDG_OCC_SCH,CORE_MID ZN,983.54,52.9,52.9,5.382E-002,18.581,0.300,0.700,AutoCalculate,OFFICEMEDIUM ACTIVITY_SCH,No,3.8200E-008,0,53
 People Internal Gains Nominal, CORE_TOP ZN OFFICE WHOLEBUILDING - MD OFFICE PEOPLE,OFFICEMEDIUM BLDG_OCC_SCH,CORE_TOP ZN,983.54,52.9,52.9,5.382E-002,18.581,0.300,0.700,AutoCalculate,OFFICEMEDIUM ACTIVITY_SCH,No,3.8200E-008,0,53
 People Internal Gains Nominal, PERIMETER_BOT_ZN_1 ZN OFFICE WHOLEBUILDING - MD OFFICE PEOPLE,OFFICEMEDIUM BLDG_OCC_SCH,PERIMETER_BOT_ZN_1 ZN,207.34,11.2,11.2,5.382E-002,18.581,0.300,0.700,AutoCalculate,OFFICEMEDIUM ACTIVITY_SCH,No,3.8200E-008,0,11
 People Internal Gains Nominal, PERIMETER_BOT_ZN_2 ZN OFFICE WHOLEBUILDING - MD OFFICE PEOPLE,OFFICEMEDIUM BLDG_OCC_SCH,PERIMETER_BOT_ZN_2 ZN,131.26,7.1,7.1,5.382E-002,18.581,0.300,0.700,AutoCalculate,OFFICEMEDIUM ACTIVITY_SCH,No,3.8200E-008,0,7
 People Internal Gains Nominal, PERIMETER_BOT_ZN_3 ZN OFFICE WHOLEBUILDING - MD OFFICE PEOPLE,OFFICEMEDIUM BLDG_OCC_SCH,PERIMETER_BOT_ZN_3 ZN,207.34,11.2,11.2,5.382E-002,18.581,0.300,0.700,AutoCalculate,OFFICEMEDIUM ACTIVITY_SCH,No,3.8200E-008,0,11
 People Internal Gains Nominal, PERIMETER_BOT_ZN_4 ZN OFFICE WHOLEBUILDING - MD OFFICE PEOPLE,OFFICEMEDIUM BLDG_OCC_SCH,PERIMETER_BOT_ZN_4 ZN,131.25,7.1,7.1,5.382E-002,18.581,0.300,0.700,AutoCalculate,OFFICEMEDIUM ACTIVITY_SCH,No,3.8200E-008,0,7
 People Internal Gains Nominal, PERIMETER_MID_ZN_1 ZN OFFICE WHOLEBUILDING - MD OFFICE PEOPLE,OFFICEMEDIUM BLDG_OCC_SCH,PERIMETER_MID_ZN_1 ZN,207.34,11.2,11.2,5.382E-002,18.581,0.300,0.700,AutoCalculate,OFFICEMEDIUM ACTIVITY_SCH,No,3.8200E-008,0,11
 People Internal Gains Nominal, PERIMETER_MID_ZN_2 ZN OFFICE WHOLEBUILDING - MD OFFICE PEOPLE,OFFICEMEDIUM BLDG_OCC_SCH,PERIMETER_MID_ZN_2 ZN,131.26,7.1,7.1,5.382E-002,18.581,0.300,0.700,AutoCalculate,OFFICEMEDIUM ACTIVITY_SCH,No,3.8200E-008,0,7
 People Internal Gains Nominal, PERIMETER_MID_ZN_3 ZN OFFICE WHOLEBUILDING - MD OFFICE PEOPLE,OFFICEMEDIUM BLDG_OCC_SCH,PERIMETER_MID_ZN_3 ZN,207.34,11.2,11.2,5.382E-002,18.581,0.300,0.700,AutoCalculate,OFFICEMEDIUM ACTIVITY_SCH,No,3.8200E-008,0,11
 People Internal Gains Nominal, PERIMETER_MID_ZN_4 ZN OFFICE WHOLEBUILDING - MD OFFICE PEOPLE,OFFICEMEDIUM BLDG_OCC_SCH,PERIMETER_MID_ZN_4 ZN,131.25,7.1,7.1,5.382E-002,18.581,0.300,0.700,AutoCalculate,OFFICEMEDIUM ACTIVITY_SCH,No,3.8200E-008,0,7
 People Internal Gains Nominal, PERIMETER_TOP_ZN_1 ZN OFFICE WHOLEBUILDING - MD OFFICE PEOPLE,OFFICEMEDIUM BLDG_OCC_SCH,PERIMETER_TOP_ZN_1 ZN,207.34,11.2,11.2,5.382E-002,18.581,0.300,0.700,AutoCalculate,OFFICEMEDIUM ACTIVITY_SCH,No,3.8200E-008,0,11
 People Internal Gains Nominal, PERIMETER_TOP_ZN_2 ZN OFFICE WHOLEBUILDING - MD OFFICE PEOPLE,OFFICEMEDIUM BLDG_OCC_SCH,PERIMETER_TOP_ZN_2 ZN,131.26,7.1,7.1,5.382E-002,18.581,0.300,0.700,AutoCalculate,OFFICEMEDIUM ACTIVITY_SCH,No,3.8200E-008,0,7
 People Internal Gains Nominal, PERIMETER_TOP_ZN_3 ZN OFFICE WHOLEBUILDING - MD OFFICE PEOPLE,OFFICEMEDIUM BLDG_OCC_SCH,PERIMETER_TOP_ZN_3 ZN,207.34,11.2,11.2,5.382E-002,18.581,0.300,0.700,AutoCalculate,OFFICEMEDIUM ACTIVITY_SCH,No,3.8200E-008,0,11
 People Internal Gains Nominal, PERIMETER_TOP_ZN_4 ZN OFFICE WHOLEBUILDING - MD OFFICE PEOPLE,OFFICEMEDIUM BLDG_OCC_SCH,PERIMETER_TOP_ZN_4 ZN,131.25,7.1,7.1,5.382E-002,18.581,0.300,0.700,AutoCalculate,OFFICEMEDIUM ACTIVITY_SCH,No,3.8200E-008,0,7
! <Lights Internal Gains Nominal>,Name,Schedule Name,Zone Name,Zone Floor Area {m2},# Zone Occupants,Lighting Level {W},Lights/Floor Area {W/m2},Lights per person {W/person},Fraction Return Air,Fraction Radiant,Fraction Short Wave,Fraction Convected,Fraction Replaceable,End-Use Category,Nominal Minimum Lighting Level {W},Nominal Maximum Lighting Level {W}
 Lights Internal Gains Nominal, CORE_BOTTOM ZN OFFICE WHOLEBUILDING - MD OFFICE LIGHTS,OFFICEMEDIUM BLDG_LIGHT_SCH_2013,CORE_BOTTOM ZN,983.54,52.9,8681.094,8.826,164.000,0.000,0.700,0.200,0.100,1.000,General,0.000,8681.094
 Lights Internal Gains Nominal, CORE_MID ZN OFFICE WHOLEBUILDING - MD OFFICE LIGHTS,OFFICEMEDIUM BLDG_LIGHT_SCH_2013,CORE_MID ZN,983.54,52.9,8681.094,8.826,164.000,0.000,0.700,0.200,0.100,1.000,General,0.000,8681.094
 Lights Internal Gains Nominal, CORE_TOP ZN OFFICE WHOLEBUILDING - MD OFFICE LIGHTS,OFFICEMEDIUM BLDG_LIGHT_SCH_2013,CORE_TOP ZN,983.54,52.9,8681.094,8.826,164.000,0.000,0.700,0.200,0.100,1.000,General,0.000,8681.094
 Lights Internal Gains Nominal, PERIMETER_BOT_ZN_1 ZN OFFICE WHOLEBUILDING - MD OFFICE LIGHTS,OFFICEMEDIUM BLDG_LIGHT_SCH_2013,PERIMETER_BOT_ZN_1 ZN,207.34,11.2,1830.051,8.826,164.000,0.000,0.700,0.200,0.100,1.000,General,0.000,1830.051
 Lights Internal Gains Nominal, PERIMETER_BOT_ZN_2 ZN OFFICE WHOLEBUILDING - MD OFFICE LIGHTS,OFFICEMEDIUM BLDG_LIGHT_SCH_2013,PERIMETER_BOT_ZN_2 ZN,131.26,7.1,1158.573,8.826,164.000,0.000,0.700,0.200,0.100,1.000,General,0.000,1158.573
 Lights Internal Gains Nominal, PERIMETER_BOT_ZN_3 ZN OFFICE WHOLEBUILDING - MD OFFICE LIGHTS,OFFICEMEDIUM BLDG_LIGHT_SCH_2013,PERIMETER_BOT_ZN_3 ZN,207.34,11.2,1830.051,8.826,164.000,0.000,0.700,0.200,0.100,1.000,General,0.000,1830.051
 Lights Internal Gains Nominal, PERIMETER_BOT_ZN_4 ZN OFFICE WHOLEBUILDING - MD OFFICE LIGHTS,OFFICEMEDIUM BLDG_LIGHT_SCH_2013,PERIMETER_BOT_ZN_4 ZN,131.25,7.1,1158.497,8.826,164.000,0.000,0.700,0.200,0.100,1.000,General,0.000,1158.497
 Lights Internal Gains Nominal, PERIMETER_MID_ZN_1 ZN OFFICE WHOLEBUILDING - MD OFFICE LIGHTS,OFFICEMEDIUM BLDG_LIGHT_SCH_2013,PERIMETER_MID_ZN_1 ZN,207.34,11.2,1830.051,8.826,164.000,0.000,0.700,0.200,0.100,1.000,General,0.000,1830.051
 Lights Internal Gains Nominal, PERIMETER_MID_ZN_2 ZN OFFICE WHOLEBUILDING - MD OFFICE LIGHTS,OFFICEMEDIUM BLDG_LIGHT_SCH_2013,PERIMETER_MID_ZN_2 ZN,131.26,7.1,1158.573,8.826,164.000,0.000,0.700,0.200,0.100,1.000,General,0.000,1158.573
 Lights Internal Gains Nominal, PERIMETER_MID_ZN_3 ZN OFFICE WHOLEBUILDING - MD OFFICE LIGHTS,OFFICEMEDIUM BLDG_LIGHT_SCH_2013,PERIMETER_MID_ZN_3 ZN,207.34,11.2,1830.051,8.826,164.000,0.000,0.700,0.200,0.100,1.000,General,0.000,1830.051
 Lights Internal Gains Nominal, PERIMETER_MID_ZN_4 ZN OFFICE WHOLEBUILDING - MD OFFICE LIGHTS,OFFICEMEDIUM BLDG_LIGHT_SCH_2013,PERIMETER_MID_ZN_4 ZN,131.25,7.1,1158.497,8.826,164.000,0.000,0.700,0.200,0.100,1.000,General,0.000,1158.497
 Lights Internal Gains Nominal, PERIMETER_TOP_ZN_1 ZN OFFICE WHOLEBUILDING - MD OFFICE LIGHTS,OFFICEMEDIUM BLDG_LIGHT_SCH_2013,PERIMETER_TOP_ZN_1 ZN,207.34,11.2,1830.051,8.826,164.000,0.000,0.700,0.200,0.100,1.000,General,0.000,1830.051
 Lights Internal Gains Nominal, PERIMETER_TOP_ZN_2 ZN OFFICE WHOLEBUILDING - MD OFFICE LIGHTS,OFFICEMEDIUM BLDG_LIGHT_SCH_2013,PERIMETER_TOP_ZN_2 ZN,131.26,7.1,1158.573,8.826,164.000,0.000,0.700,0.200,0.100,1.000,General,0.000,1158.573
 Lights Internal Gains Nominal, PERIMETER_TOP_ZN_3 ZN OFFICE WHOLEBUILDING - MD OFFICE LIGHTS,OFFICEMEDIUM BLDG_LIGHT_SCH_2013,PERIMETER_TOP_ZN_3 ZN,207.34,11.2,1830.051,8.826,164.000,0.000,0.700,0.200,0.100,1.000,General,0.000,1830.051
 Lights Internal Gains Nominal, PERIMETER_TOP_ZN_4 ZN OFFICE WHOLEBUILDING - MD OFFICE LIGHTS,OFFICEMEDIUM BLDG_LIGHT_SCH_2013,PERIMETER_TOP_ZN_4 ZN,131.25,7.1,1158.497,8.826,164.000,0.000,0.700,0.200,0.100,1.000,General,0.000,1158.497
! <ElectricEquipment Internal Gains Nominal>,Name,Schedule Name,Zone Name,Zone Floor Area {m2},# Zone Occupants,Equipment Level {W},Equipment/Floor Area {W/m2},Equipment per person {W/person},Fraction Latent,Fraction Radiant,Fraction Lost,Fraction Convected,End-Use SubCategory,Nominal Minimum Equipment Level {W},Nominal Maximum Equipment Level {W}
 ElectricEquipment Internal Gains Nominal, 2 ELEVATOR FANS,OFFICEMEDIUM ELEV_LIGHT_FAN_SCH_ADD_DF,CORE_BOTTOM ZN,983.54,52.9,61.915,6.295E-002,1.170,0.000,0.500,0.000,0.500,General,0.000,42.721
 ElectricEquipment Internal Gains Nominal, 2 ELEVATOR LIFT MOTORS,OFFICEMEDIUM BLDG_ELEVATORS,CORE_BOTTOM ZN,983.54,52.9,32110.000,32.647,606.610,0.000,0.500,0.000,0.500,General,0.000,22155.900
 ElectricEquipment Internal Gains Nominal, 2 ELEVATOR LIGHTS,OFFICEMEDIUM ELEV_LIGHT_FAN_SCH_ADD_DF,CORE_BOTTOM ZN,983.54,52.9,64.697,6.578E-002,1.222,0.000,0.500,0.000,0.500,General,0.000,44.641
 ElectricEquipment Internal Gains Nominal, CORE_BOTTOM ZN OFFICE WHOLEBUILDING - MD OFFICE ELEC EQUIP,OFFICEMEDIUM BLDG_EQUIP_SCH_2013,CORE_BOTTOM ZN,983.54,52.9,7940.025,8.073,150.000,0.000,0.500,0.000,0.500,General,0.000,7940.025
 ElectricEquipment Internal Gains Nominal, CORE_MID ZN OFFICE WHOLEBUILDING - MD OFFICE ELEC EQUIP,OFFICEMEDIUM BLDG_EQUIP_SCH_2013,CORE_MID ZN,983.54,52.9,7940.025,8.073,150.000,0.000,0.500,0.000,0.500,General,0.000,7940.025
 ElectricEquipment Internal Gains Nominal, CORE_TOP ZN OFFICE WHOLEBUILDING - MD OFFICE ELEC EQUIP,OFFICEMEDIUM BLDG_EQUIP_SCH_2013,CORE_TOP ZN,983.54,52.9,7940.025,8.073,150.000,0.000,0.500,0.000,0.500,General,0.000,7940.025
 ElectricEquipment Internal Gains Nominal, PERIMETER_BOT_ZN_1 ZN OFFICE WHOLEBUILDING - MD OFFICE ELEC EQUIP,OFFICEMEDIUM BLDG_EQUIP_SCH_2013,PERIMETER_BOT_ZN_1 ZN,207.34,11.2,1673.827,8.073,150.000,0.000,0.500,0.000,0.500,General,0.000,1673.827
 ElectricEquipment Internal Gains Nominal, PERIMETER_BOT_ZN_2 ZN OFFICE WHOLEBUILDING - MD OFFICE ELEC EQUIP,OFFICEMEDIUM BLDG_EQUIP_SCH_2013,PERIMETER_BOT_ZN_2 ZN,131.26,7.1,1059.671,8.073,150.000,0.000,0.500,0.000,0.500,General,0.000,1059.671
 ElectricEquipment Internal Gains Nominal, PERIMETER_BOT_ZN_3 ZN OFFICE WHOLEBUILDING - MD OFFICE ELEC EQUIP,OFFICEMEDIUM BLDG_EQUIP_SCH_2013,PERIMETER_BOT_ZN_3 ZN,207.34,11.2,1673.827,8.073,150.000,0.000,0.500,0.000,0.500,General,0.000,1673.827
 ElectricEquipment Internal Gains Nominal, PERIMETER_BOT_ZN_4 ZN OFFICE WHOLEBUILDING - MD OFFICE ELEC EQUIP,OFFICEMEDIUM BLDG_EQUIP_SCH_2013,PERIMETER_BOT_ZN_4 ZN,131.25,7.1,1059.601,8.073,150.000,0.000,0.500,0.000,0.500,General,0.000,1059.601
 ElectricEquipment Internal Gains Nominal, PERIMETER_MID_ZN_1 ZN OFFICE WHOLEBUILDING - MD OFFICE ELEC EQUIP,OFFICEMEDIUM BLDG_EQUIP_SCH_2013,PERIMETER_MID_ZN_1 ZN,207.34,11.2,1673.827,8.073,150.000,0.000,0.500,0.000,0.500,General,0.000,1673.827
 ElectricEquipment Internal Gains Nominal, PERIMETER_MID_ZN_2 ZN OFFICE WHOLEBUILDING - MD OFFICE ELEC EQUIP,OFFICEMEDIUM BLDG_EQUIP_SCH_2013,PERIMETER_MID_ZN_2 ZN,131.26,7.1,1059.671,8.073,150.000,0.000,0.500,0.000,0.500,General,0.000,1059.671
 ElectricEquipment Internal Gains Nominal, PERIMETER_MID_ZN_3 ZN OFFICE WHOLEBUILDING - MD OFFICE ELEC EQUIP,OFFICEMEDIUM BLDG_EQUIP_SCH_2013,PERIMETER_MID_ZN_3 ZN,207.34,11.2,1673.827,8.073,150.000,0.000,0.500,0.000,0.500,General,0.000,1673.827
 ElectricEquipment Internal Gains Nominal, PERIMETER_MID_ZN_4 ZN OFFICE WHOLEBUILDING - MD OFFICE ELEC EQUIP,OFFICEMEDIUM BLDG_EQUIP_SCH_2013,PERIMETER_MID_ZN_4 ZN,131.25,7.1,1059.601,8.073,150.000,0.000,0.500,0.000,0.500,General,0.000,1059.601
 ElectricEquipment Internal Gains Nominal, PERIMETER_TOP_ZN_1 ZN OFFICE WHOLEBUILDING - MD OFFICE ELEC EQUIP,OFFICEMEDIUM BLDG_EQUIP_SCH_2013,PERIMETER_TOP_ZN_1 ZN,207.34,11.2,1673.827,8.073,150.000,0.000,0.500,0.000,0.500,General,0.000,1673.827
 ElectricEquipment Internal Gains Nominal, PERIMETER_TOP_ZN_2 ZN OFFICE WHOLEBUILDING - MD OFFICE ELEC EQUIP,OFFICEMEDIUM BLDG_EQUIP_SCH_2013,PERIMETER_TOP_ZN_2 ZN,131.26,7.1,1059.671,8.073,150.000,0.000,0.500,0.000,0.500,General,0.000,1059.671
 ElectricEquipment Internal Gains Nominal, PERIMETER_TOP_ZN_3 ZN OFFICE WHOLEBUILDING - MD OFFICE ELEC EQUIP,OFFICEMEDIUM BLDG_EQUIP_SCH_2013,PERIMETER_TOP_ZN_3 ZN,207.34,11.2,1673.827,8.073,150.000,0.000,0.500,0.000,0.500,General,0.000,1673.827
 ElectricEquipment Internal Gains Nominal, PERIMETER_TOP_ZN_4 ZN OFFICE WHOLEBUILDING - MD OFFICE ELEC EQUIP,OFFICEMEDIUM BLDG_EQUIP_SCH_2013,PERIMETER_TOP_ZN_4 ZN,131.25,7.1,1059.601,8.073,150.000,0.000,0.500,0.000,0.500,General,0.000,1059.601
! <Shadowing/Sun Position Calculations Annual Simulations>, Calculation Method, Value {days}, Allowable Number Figures in Shadow Overlap {}, Polygon Clipping Algorithm, Sky Diffuse Modeling Algorithm, External Shading Calculation Method, Output External Shading Calculation Results, Disable Self-Shading Within Shading Zone Groups, Disable Self-Shading From Shading Zone Groups to Other Zones
Shadowing/Sun Position Calculations Annual Simulations,AverageOverDaysInFrequency,7,15000,SutherlandHodgman,SimpleSkyDiffuseModeling,InternalCalculation,No,No,No
! <Zone/Window Adjacency Daylighting Counts>, Zone Name, Number of Exterior Windows, Number of Exterior Windows in Adjacent Zones
Zone/Window Adjacency Daylighting Counts, PERIMETER_BOT_ZN_1 ZN,1,0
Zone/Window Adjacency Daylighting Counts, PERIMETER_BOT_ZN_2 ZN,1,0
Zone/Window Adjacency Daylighting Counts, PERIMETER_BOT_ZN_3 ZN,1,0
Zone/Window Adjacency Daylighting Counts, PERIMETER_BOT_ZN_4 ZN,1,0
Zone/Window Adjacency Daylighting Counts, PERIMETER_MID_ZN_1 ZN,1,0
Zone/Window Adjacency Daylighting Counts, PERIMETER_MID_ZN_2 ZN,1,0
Zone/Window Adjacency Daylighting Counts, PERIMETER_MID_ZN_3 ZN,1,0
Zone/Window Adjacency Daylighting Counts, PERIMETER_MID_ZN_4 ZN,1,0
Zone/Window Adjacency Daylighting Counts, PERIMETER_TOP_ZN_1 ZN,1,0
Zone/Window Adjacency Daylighting Counts, PERIMETER_TOP_ZN_2 ZN,1,0
Zone/Window Adjacency Daylighting Counts, PERIMETER_TOP_ZN_3 ZN,1,0
Zone/Window Adjacency Daylighting Counts, PERIMETER_TOP_ZN_4 ZN,1,0
! <Zone/Window Adjacency Daylighting Matrix>, Zone Name, Number of Adjacent Zones with Windows,Adjacent Zone Names - 1st 100 (max)
Zone/Window Adjacency Daylighting Matrix, PERIMETER_BOT_ZN_1 ZN,0
Zone/Window Adjacency Daylighting Matrix, PERIMETER_BOT_ZN_2 ZN,0
Zone/Window Adjacency Daylighting Matrix, PERIMETER_BOT_ZN_3 ZN,0
Zone/Window Adjacency Daylighting Matrix, PERIMETER_BOT_ZN_4 ZN,0
Zone/Window Adjacency Daylighting Matrix, PERIMETER_MID_ZN_1 ZN,0
Zone/Window Adjacency Daylighting Matrix, PERIMETER_MID_ZN_2 ZN,0
Zone/Window Adjacency Daylighting Matrix, PERIMETER_MID_ZN_3 ZN,0
Zone/Window Adjacency Daylighting Matrix, PERIMETER_MID_ZN_4 ZN,0
Zone/Window Adjacency Daylighting Matrix, PERIMETER_TOP_ZN_1 ZN,0
Zone/Window Adjacency Daylighting Matrix, PERIMETER_TOP_ZN_2 ZN,0
Zone/Window Adjacency Daylighting Matrix, PERIMETER_TOP_ZN_3 ZN,0
Zone/Window Adjacency Daylighting Matrix, PERIMETER_TOP_ZN_4 ZN,0
! <Water Heater Information>,Type,Name,Volume {m3},Maximum Capacity {W},Standard Rated Recovery Efficiency, Standard Rated Energy Factor
! <ZoneInfiltration Airflow Stats Nominal>,Name,Schedule Name,Zone Name, Zone Floor Area {m2}, # Zone Occupants,Design Volume Flow Rate {m3/s},Volume Flow Rate/Floor Area {m3/s-m2},Volume Flow Rate/Exterior Surface Area {m3/s-m2},ACH - Air Changes per Hour,Equation A - Constant Term Coefficient {},Equation B - Temperature Term Coefficient {1/C},Equation C - Velocity Term Coefficient {s/m}, Equation D - Velocity Squared Term Coefficient {s2/m2}
 ZoneInfiltration Airflow Stats Nominal, FIRSTFLOOR_PLENUM INFILTRATION,OFFICEMEDIUM INFIL_SCH_PNNL,FIRSTFLOOR_PLENUM ZN,1660.73,0.0,0.116,6.957E-005,5.696E-004,0.205,0.000,0.000,0.224,0.000
 ZoneInfiltration Airflow Stats Nominal, MIDFLOOR_PLENUM INFILTRATION,OFFICEMEDIUM INFIL_SCH_PNNL,MIDFLOOR_PLENUM ZN,1660.73,0.0,0.116,6.957E-005,5.696E-004,0.205,0.000,0.000,0.224,0.000
 ZoneInfiltration Airflow Stats Nominal, ENTRY DOOR INFILTRATION,OFFICEMEDIUM INFIL_DOOR_OPENING_SCH,PERIMETER_BOT_ZN_1 ZN,207.34,11.2,0.679,3.273E-003,4.957E-003,4.296,1.000,0.000,0.000,0.000
 ZoneInfiltration Airflow Stats Nominal, PERIMETER_BOT_ZN_1 INFILTRATION,OFFICEMEDIUM INFIL_SCH_PNNL,PERIMETER_BOT_ZN_1 ZN,207.34,11.2,7.798E-002,3.761E-004,5.696E-004,0.494,0.000,0.000,0.224,0.000
 ZoneInfiltration Airflow Stats Nominal, PERIMETER_BOT_ZN_2 INFILTRATION,OFFICEMEDIUM INFIL_SCH_PNNL,PERIMETER_BOT_ZN_2 ZN,131.26,7.1,5.199E-002,3.961E-004,5.696E-004,0.520,0.000,0.000,0.224,0.000
 ZoneInfiltration Airflow Stats Nominal, PERIMETER_BOT_ZN_3 INFILTRATION,OFFICEMEDIUM INFIL_SCH_PNNL,PERIMETER_BOT_ZN_3 ZN,207.34,11.2,7.798E-002,3.761E-004,5.696E-004,0.494,0.000,0.000,0.224,0.000
 ZoneInfiltration Airflow Stats Nominal, PERIMETER_BOT_ZN_4 INFILTRATION,OFFICEMEDIUM INFIL_SCH_PNNL,PERIMETER_BOT_ZN_4 ZN,131.25,7.1,5.199E-002,3.961E-004,5.696E-004,0.520,0.000,0.000,0.224,0.000
 ZoneInfiltration Airflow Stats Nominal, PERIMETER_MID_ZN_1 INFILTRATION,OFFICEMEDIUM INFIL_SCH_PNNL,PERIMETER_MID_ZN_1 ZN,207.34,11.2,7.798E-002,3.761E-004,5.696E-004,0.494,0.000,0.000,0.224,0.000
 ZoneInfiltration Airflow Stats Nominal, PERIMETER_MID_ZN_2 INFILTRATION,OFFICEMEDIUM INFIL_SCH_PNNL,PERIMETER_MID_ZN_2 ZN,131.26,7.1,5.199E-002,3.961E-004,5.696E-004,0.520,0.000,0.000,0.224,0.000
 ZoneInfiltration Airflow Stats Nominal, PERIMETER_MID_ZN_3 INFILTRATION,OFFICEMEDIUM INFIL_SCH_PNNL,PERIMETER_MID_ZN_3 ZN,207.34,11.2,7.798E-002,3.761E-004,5.696E-004,0.494,0.000,0.000,0.224,0.000
 ZoneInfiltration Airflow Stats Nominal, PERIMETER_MID_ZN_4 INFILTRATION,OFFICEMEDIUM INFIL_SCH_PNNL,PERIMETER_MID_ZN_4 ZN,131.25,7.1,5.199E-002,3.961E-004,5.696E-004,0.520,0.000,0.000,0.224,0.000
 ZoneInfiltration Airflow Stats Nominal, PERIMETER_TOP_ZN_1 INFILTRATION,OFFICEMEDIUM INFIL_SCH_PNNL,PERIMETER_TOP_ZN_1 ZN,207.34,11.2,7.798E-002,3.761E-004,5.696E-004,0.494,0.000,0.000,0.224,0.000
 ZoneInfiltration Airflow Stats Nominal, PERIMETER_TOP_ZN_2 INFILTRATION,OFFICEMEDIUM INFIL_SCH_PNNL,PERIMETER_TOP_ZN_2 ZN,131.26,7.1,5.199E-002,3.961E-004,5.696E-004,0.520,0.000,0.000,0.224,0.000
 ZoneInfiltration Airflow Stats Nominal, PERIMETER_TOP_ZN_3 INFILTRATION,OFFICEMEDIUM INFIL_SCH_PNNL,PERIMETER_TOP_ZN_3 ZN,207.34,11.2,7.798E-002,3.761E-004,5.696E-004,0.494,0.000,0.000,0.224,0.000
 ZoneInfiltration Airflow Stats Nominal, PERIMETER_TOP_ZN_4 INFILTRATION,OFFICEMEDIUM INFIL_SCH_PNNL,PERIMETER_TOP_ZN_4 ZN,131.25,7.1,5.199E-002,3.961E-004,5.696E-004,0.520,0.000,0.000,0.224,0.000
 ZoneInfiltration Airflow Stats Nominal, TOPFLOOR_PLENUM INFILTRATION,OFFICEMEDIUM INFIL_SCH_PNNL,TOPFLOOR_PLENUM ZN,1660.73,0.0,0.116,6.957E-005,6.199E-005,0.205,0.000,0.000,0.224,0.000
! <AirFlow Model>, Simple
 AirFlow Model, Simple
! <RoomAir Model>, Zone Name, Mixing/Mundt/UCSDDV/UCSDCV/UCSDUFI/UCSDUFE/User Defined
RoomAir Model,CORE_BOTTOM ZN,Mixing/Well-Stirred
RoomAir Model,CORE_MID ZN,Mixing/Well-Stirred
RoomAir Model,CORE_TOP ZN,Mixing/Well-Stirred
RoomAir Model,FIRSTFLOOR_PLENUM ZN,Mixing/Well-Stirred
RoomAir Model,MIDFLOOR_PLENUM ZN,Mixing/Well-Stirred
RoomAir Model,PERIMETER_BOT_ZN_1 ZN,Mixing/Well-Stirred
RoomAir Model,PERIMETER_BOT_ZN_2 ZN,Mixing/Well-Stirred
RoomAir Model,PERIMETER_BOT_ZN_3 ZN,Mixing/Well-Stirred
RoomAir Model,PERIMETER_BOT_ZN_4 ZN,Mixing/Well-Stirred
RoomAir Model,PERIMETER_MID_ZN_1 ZN,Mixing/Well-Stirred
RoomAir Model,PERIMETER_MID_ZN_2 ZN,Mixing/Well-Stirred
RoomAir Model,PERIMETER_MID_ZN_3 ZN,Mixing/Well-Stirred
RoomAir Model,PERIMETER_MID_ZN_4 ZN,Mixing/Well-Stirred
RoomAir Model,PERIMETER_TOP_ZN_1 ZN,Mixing/Well-Stirred
RoomAir Model,PERIMETER_TOP_ZN_2 ZN,Mixing/Well-Stirred
RoomAir Model,PERIMETER_TOP_ZN_3 ZN,Mixing/Well-Stirred
RoomAir Model,PERIMETER_TOP_ZN_4 ZN,Mixing/Well-Stirred
RoomAir Model,TOPFLOOR_PLENUM ZN,Mixing/Well-Stirred
! <AirflowNetwork Model:Control>, No Multizone or Distribution/Multizone with Distribution/Multizone without Distribution/Multizone with Distribution only during Fan Operation
AirflowNetwork Model:Control,NoMultizoneOrDistribution
! <Zone Volume Capacitance Multiplier>, Sensible Heat Capacity Multiplier, Moisture Capacity Multiplier, Carbon Dioxide Capacity Multiplier, Generic Contaminant Capacity Multiplier
Zone Volume Capacitance Multiplier,   1.000 ,   1.000,   1.000,   1.000
! <Load Timesteps in Zone Design Calculation Averaging Window>, Value
 Load Timesteps in Zone Design Calculation Averaging Window,    6
! <Heating Sizing Factor Information>, Sizing Factor ID, Value
 Heating Sizing Factor Information, Global,   1.0000    
! <Cooling Sizing Factor Information>, Sizing Factor ID, Value
 Cooling Sizing Factor Information, Global,   1.0000    
! <Sky Daylight Factors>, MonthAndDay, Zone Name, Window Name, Daylight Fac: Ref Pt #1, Daylight Fac: Ref Pt #2
 Clear Sky Daylight Factors,07/21,PERIMETER_BOT_ZN_1 ZN,PERIMETER_BOT_ZN_1_WALL_SOUTH_WINDOW,6.0924E-002,3.2546E-002
 Clear Turbid Sky Daylight Factors,07/21,PERIMETER_BOT_ZN_1 ZN,PERIMETER_BOT_ZN_1_WALL_SOUTH_WINDOW,5.8834E-002,3.0462E-002
 Intermediate Sky Daylight Factors,07/21,PERIMETER_BOT_ZN_1 ZN,PERIMETER_BOT_ZN_1_WALL_SOUTH_WINDOW,4.8008E-002,2.3221E-002
 Overcast Sky Daylight Factors,07/21,PERIMETER_BOT_ZN_1 ZN,PERIMETER_BOT_ZN_1_WALL_SOUTH_WINDOW,4.2665E-002,2.0593E-002
 Clear Sky Daylight Factors,07/21,PERIMETER_BOT_ZN_2 ZN,PERIMETER_BOT_ZN_2_WALL_EAST_WINDOW,4.3350E-002,2.5229E-002
 Clear Turbid Sky Daylight Factors,07/21,PERIMETER_BOT_ZN_2 ZN,PERIMETER_BOT_ZN_2_WALL_EAST_WINDOW,3.8576E-002,2.2165E-002
 Intermediate Sky Daylight Factors,07/21,PERIMETER_BOT_ZN_2 ZN,PERIMETER_BOT_ZN_2_WALL_EAST_WINDOW,3.1815E-002,1.6728E-002
 Overcast Sky Daylight Factors,07/21,PERIMETER_BOT_ZN_2 ZN,PERIMETER_BOT_ZN_2_WALL_EAST_WINDOW,4.3064E-002,2.0859E-002
 Clear Sky Daylight Factors,07/21,PERIMETER_BOT_ZN_3 ZN,PERIMETER_BOT_ZN_3_WALL_NORTH_WINDOW,3.4630E-002,2.1590E-002
 Clear Turbid Sky Daylight Factors,07/21,PERIMETER_BOT_ZN_3 ZN,PERIMETER_BOT_ZN_3_WALL_NORTH_WINDOW,2.8999E-002,1.8118E-002
 Intermediate Sky Daylight Factors,07/21,PERIMETER_BOT_ZN_3 ZN,PERIMETER_BOT_ZN_3_WALL_NORTH_WINDOW,2.1720E-002,1.2336E-002
 Overcast Sky Daylight Factors,07/21,PERIMETER_BOT_ZN_3 ZN,PERIMETER_BOT_ZN_3_WALL_NORTH_WINDOW,4.2665E-002,2.0593E-002
 Clear Sky Daylight Factors,07/21,PERIMETER_BOT_ZN_4 ZN,PERIMETER_BOT_ZN_4_WALL_WEST_WINDOW,4.3936E-002,2.5476E-002
 Clear Turbid Sky Daylight Factors,07/21,PERIMETER_BOT_ZN_4 ZN,PERIMETER_BOT_ZN_4_WALL_WEST_WINDOW,3.9235E-002,2.2441E-002
 Intermediate Sky Daylight Factors,07/21,PERIMETER_BOT_ZN_4 ZN,PERIMETER_BOT_ZN_4_WALL_WEST_WINDOW,3.2414E-002,1.6979E-002
 Overcast Sky Daylight Factors,07/21,PERIMETER_BOT_ZN_4 ZN,PERIMETER_BOT_ZN_4_WALL_WEST_WINDOW,4.3065E-002,2.0859E-002
 Clear Sky Daylight Factors,07/21,PERIMETER_MID_ZN_1 ZN,PERIMETER_MID_ZN_1_WALL_SOUTH_WINDOW,6.2640E-002,3.4261E-002
 Clear Turbid Sky Daylight Factors,07/21,PERIMETER_MID_ZN_1 ZN,PERIMETER_MID_ZN_1_WALL_SOUTH_WINDOW,6.0509E-002,3.2137E-002
 Intermediate Sky Daylight Factors,07/21,PERIMETER_MID_ZN_1 ZN,PERIMETER_MID_ZN_1_WALL_SOUTH_WINDOW,4.9450E-002,2.4663E-002
 Overcast Sky Daylight Factors,07/21,PERIMETER_MID_ZN_1 ZN,PERIMETER_MID_ZN_1_WALL_SOUTH_WINDOW,4.3932E-002,2.1860E-002
 Clear Sky Daylight Factors,07/21,PERIMETER_MID_ZN_2 ZN,PERIMETER_MID_ZN_2_WALL_EAST_WINDOW,4.4800E-002,2.6679E-002
 Clear Turbid Sky Daylight Factors,07/21,PERIMETER_MID_ZN_2 ZN,PERIMETER_MID_ZN_2_WALL_EAST_WINDOW,3.9926E-002,2.3515E-002
 Intermediate Sky Daylight Factors,07/21,PERIMETER_MID_ZN_2 ZN,PERIMETER_MID_ZN_2_WALL_EAST_WINDOW,3.3002E-002,1.7916E-002
 Overcast Sky Daylight Factors,07/21,PERIMETER_MID_ZN_2 ZN,PERIMETER_MID_ZN_2_WALL_EAST_WINDOW,4.4411E-002,2.2206E-002
 Clear Sky Daylight Factors,07/21,PERIMETER_MID_ZN_3 ZN,PERIMETER_MID_ZN_3_WALL_NORTH_WINDOW,3.5837E-002,2.2797E-002
 Clear Turbid Sky Daylight Factors,07/21,PERIMETER_MID_ZN_3 ZN,PERIMETER_MID_ZN_3_WALL_NORTH_WINDOW,3.0086E-002,1.9205E-002
 Intermediate Sky Daylight Factors,07/21,PERIMETER_MID_ZN_3 ZN,PERIMETER_MID_ZN_3_WALL_NORTH_WINDOW,2.2639E-002,1.3255E-002
 Overcast Sky Daylight Factors,07/21,PERIMETER_MID_ZN_3 ZN,PERIMETER_MID_ZN_3_WALL_NORTH_WINDOW,4.3932E-002,2.1860E-002
 Clear Sky Daylight Factors,07/21,PERIMETER_MID_ZN_4 ZN,PERIMETER_MID_ZN_4_WALL_WEST_WINDOW,4.5397E-002,2.6937E-002
 Clear Turbid Sky Daylight Factors,07/21,PERIMETER_MID_ZN_4 ZN,PERIMETER_MID_ZN_4_WALL_WEST_WINDOW,4.0599E-002,2.3804E-002
 Intermediate Sky Daylight Factors,07/21,PERIMETER_MID_ZN_4 ZN,PERIMETER_MID_ZN_4_WALL_WEST_WINDOW,3.3614E-002,1.8179E-002
 Overcast Sky Daylight Factors,07/21,PERIMETER_MID_ZN_4 ZN,PERIMETER_MID_ZN_4_WALL_WEST_WINDOW,4.4412E-002,2.2206E-002
 Clear Sky Daylight Factors,07/21,PERIMETER_TOP_ZN_1 ZN,PERIMETER_TOP_ZN_1_WALL_SOUTH_WINDOW,6.2640E-002,3.4261E-002
 Clear Turbid Sky Daylight Factors,07/21,PERIMETER_TOP_ZN_1 ZN,PERIMETER_TOP_ZN_1_WALL_SOUTH_WINDOW,6.0509E-002,3.2137E-002
 Intermediate Sky Daylight Factors,07/21,PERIMETER_TOP_ZN_1 ZN,PERIMETER_TOP_ZN_1_WALL_SOUTH_WINDOW,4.9450E-002,2.4663E-002
 Overcast Sky Daylight Factors,07/21,PERIMETER_TOP_ZN_1 ZN,PERIMETER_TOP_ZN_1_WALL_SOUTH_WINDOW,4.3932E-002,2.1860E-002
 Clear Sky Daylight Factors,07/21,PERIMETER_TOP_ZN_2 ZN,PERIMETER_TOP_ZN_2_WALL_EAST_WINDOW,4.4800E-002,2.6679E-002
 Clear Turbid Sky Daylight Factors,07/21,PERIMETER_TOP_ZN_2 ZN,PERIMETER_TOP_ZN_2_WALL_EAST_WINDOW,3.9926E-002,2.3515E-002
 Intermediate Sky Daylight Factors,07/21,PERIMETER_TOP_ZN_2 ZN,PERIMETER_TOP_ZN_2_WALL_EAST_WINDOW,3.3002E-002,1.7916E-002
 Overcast Sky Daylight Factors,07/21,PERIMETER_TOP_ZN_2 ZN,PERIMETER_TOP_ZN_2_WALL_EAST_WINDOW,4.4411E-002,2.2206E-002
 Clear Sky Daylight Factors,07/21,PERIMETER_TOP_ZN_3 ZN,PERIMETER_TOP_ZN_3_WALL_NORTH_WINDOW,3.5837E-002,2.2797E-002
 Clear Turbid Sky Daylight Factors,07/21,PERIMETER_TOP_ZN_3 ZN,PERIMETER_TOP_ZN_3_WALL_NORTH_WINDOW,3.0086E-002,1.9205E-002
 Intermediate Sky Daylight Factors,07/21,PERIMETER_TOP_ZN_3 ZN,PERIMETER_TOP_ZN_3_WALL_NORTH_WINDOW,2.2639E-002,1.3255E-002
 Overcast Sky Daylight Factors,07/21,PERIMETER_TOP_ZN_3 ZN,PERIMETER_TOP_ZN_3_WALL_NORTH_WINDOW,4.3932E-002,2.1860E-002
 Clear Sky Daylight Factors,07/21,PERIMETER_TOP_ZN_4 ZN,PERIMETER_TOP_ZN_4_WALL_WEST_WINDOW,4.5397E-002,2.6937E-002
 Clear Turbid Sky Daylight Factors,07/21,PERIMETER_TOP_ZN_4 ZN,PERIMETER_TOP_ZN_4_WALL_WEST_WINDOW,4.0599E-002,2.3804E-002
 Intermediate Sky Daylight Factors,07/21,PERIMETER_TOP_ZN_4 ZN,PERIMETER_TOP_ZN_4_WALL_WEST_WINDOW,3.3614E-002,1.8179E-002
 Overcast Sky Daylight Factors,07/21,PERIMETER_TOP_ZN_4 ZN,PERIMETER_TOP_ZN_4_WALL_WEST_WINDOW,4.4412E-002,2.2206E-002
! <Zone Sizing Information>, Zone Name, Load Type, Calc Des Load {W}, User Des Load {W}, Calc Des Air Flow Rate {m3/s}, User Des Air Flow Rate {m3/s}, Design Day Name, Date/Time of Peak, Temperature at Peak {C}, Humidity Ratio at Peak {kgWater/kgDryAir}, Floor Area {m2}, # Occupants, Calc Outdoor Air Flow Rate {m3/s}, Calc DOAS Heat Addition Rate {W}
 Zone Sizing Information, CORE_BOTTOM ZN, Cooling, 42233.33124, 42233.33124, 3.11018, 3.11018, CHICAGO OHARE INTL AP ANN CLG .4% CONDNS DB=>MWB, 7/21 08:00:00, 25.53000, 1.49611E-002, 983.53657, 52.93350, 0.42469, 0.00000
 Zone Sizing Information, CORE_BOTTOM ZN, Heating, 8100.28275, 8100.28275, 0.34883, 0.42469, CHICAGO OHARE INTL AP ANN HTG 99.6% CONDNS DB, 1/21 08:00:00, -20.00000, 6.49857E-004, 983.53657, 52.93350, 0.42469, 0.00000
 Zone Sizing Information, CORE_MID ZN, Cooling, 31250.73238, 31250.73238, 2.29921, 2.29921, CHICAGO OHARE INTL AP ANN CLG .4% CONDNS DB=>MWB, 7/21 08:00:00, 25.53000, 1.49611E-002, 983.53657, 52.93350, 0.42469, 0.00000
 Zone Sizing Information, CORE_MID ZN, Heating, 14967.52632, 14967.52632, 0.64886, 0.64886, CHICAGO OHARE INTL AP ANN HTG 99.6% CONDNS DB, 1/21 08:00:00, -20.00000, 6.49857E-004, 983.53657, 52.93350, 0.42469, 0.00000
 Zone Sizing Information, CORE_TOP ZN, Cooling, 31569.07633, 31569.07633, 2.32281, 2.32281, CHICAGO OHARE INTL AP ANN CLG .4% CONDNS DB=>MWB, 7/21 08:00:00, 25.53000, 1.49611E-002, 983.53657, 52.93350, 0.42469, 0.00000
 Zone Sizing Information, CORE_TOP ZN, Heating, 26958.89215, 26958.89215, 1.17387, 1.17387, CHICAGO OHARE INTL AP ANN HTG 99.6% CONDNS DB, 1/21 08:00:00, -20.00000, 6.49857E-004, 983.53657, 52.93350, 0.42469, 0.00000
 Zone Sizing Information, PERIMETER_BOT_ZN_1 ZN, Cooling, 10842.33215, 10842.33215, 0.80511, 0.80511, CHICAGO OHARE INTL AP ANN CLG .4% CONDNS DB=>MWB, 7/21 13:00:00, 32.77500, 1.49611E-002, 207.33814, 11.15885, 8.95286E-002, 0.00000
 Zone Sizing Information, PERIMETER_BOT_ZN_1 ZN, Heating, 8591.73860, 8591.73860, 0.37475, 0.37475, CHICAGO OHARE INTL AP ANN HTG 99.6% CONDNS DB, 1/21 08:00:00, -20.00000, 6.49857E-004, 207.33814, 11.15885, 8.95286E-002, 0.00000
 Zone Sizing Information, PERIMETER_BOT_ZN_2 ZN, Cooling, 10706.54773, 10706.54773, 0.78945, 0.78945, CHICAGO OHARE INTL AP ANN CLG .4% CONDNS DB=>MWB, 7/21 08:00:00, 25.53000, 1.49611E-002, 131.26219, 7.06447, 5.66790E-002, 0.00000
 Zone Sizing Information, PERIMETER_BOT_ZN_2 ZN, Heating, 5591.33426, 5591.33426, 0.24391, 0.24391, CHICAGO OHARE INTL AP ANN HTG 99.6% CONDNS DB, 1/21 08:00:00, -20.00000, 6.49857E-004, 131.26219, 7.06447, 5.66790E-002, 0.00000
 Zone Sizing Information, PERIMETER_BOT_ZN_3 ZN, Cooling, 6752.32688, 6752.32688, 0.50141, 0.50141, CHICAGO OHARE INTL AP ANN CLG .4% CONDNS DB=>MWB, 7/21 14:30:00, 33.30000, 1.49611E-002, 207.33814, 11.15885, 8.95286E-002, 0.00000
 Zone Sizing Information, PERIMETER_BOT_ZN_3 ZN, Heating, 8428.89526, 8428.89526, 0.36762, 0.36762, CHICAGO OHARE INTL AP ANN HTG 99.6% CONDNS DB, 1/21 08:00:00, -20.00000, 6.49857E-004, 207.33814, 11.15885, 8.95286E-002, 0.00000
 Zone Sizing Information, PERIMETER_BOT_ZN_4 ZN, Cooling, 10763.95494, 10763.95494, 0.79929, 0.79929, CHICAGO OHARE INTL AP ANN CLG .4% CONDNS DB=>MWB, 7/21 16:50:00, 31.97000, 1.49611E-002, 131.25358, 7.06401, 5.66753E-002, 0.00000
 Zone Sizing Information, PERIMETER_BOT_ZN_4 ZN, Heating, 5681.18340, 5681.18340, 0.24784, 0.24784, CHICAGO OHARE INTL AP ANN HTG 99.6% CONDNS DB, 1/21 08:00:00, -20.00000, 6.49857E-004, 131.25358, 7.06401, 5.66753E-002, 0.00000
 Zone Sizing Information, PERIMETER_MID_ZN_1 ZN, Cooling, 12389.08523, 12389.08523, 0.91997, 0.91997, CHICAGO OHARE INTL AP ANN CLG .4% CONDNS DB=>MWB, 7/21 13:00:00, 32.77500, 1.49611E-002, 207.33814, 11.15885, 8.95286E-002, 0.00000
 Zone Sizing Information, PERIMETER_MID_ZN_1 ZN, Heating, 10250.54818, 10250.54818, 0.44736, 0.44736, CHICAGO OHARE INTL AP ANN HTG 99.6% CONDNS DB, 1/21 08:00:00, -20.00000, 6.49857E-004, 207.33814, 11.15885, 8.95286E-002, 0.00000
 Zone Sizing Information, PERIMETER_MID_ZN_2 ZN, Cooling, 11840.30300, 11840.30300, 0.87308, 0.87308, CHICAGO OHARE INTL AP ANN CLG .4% CONDNS DB=>MWB, 7/21 08:00:00, 25.53000, 1.49611E-002, 131.26219, 7.06447, 5.66790E-002, 0.00000
 Zone Sizing Information, PERIMETER_MID_ZN_2 ZN, Heating, 6644.01219, 6644.01219, 0.28998, 0.28998, CHICAGO OHARE INTL AP ANN HTG 99.6% CONDNS DB, 1/21 08:00:00, -20.00000, 6.49857E-004, 131.26219, 7.06447, 5.66790E-002, 0.00000
 Zone Sizing Information, PERIMETER_MID_ZN_3 ZN, Cooling, 8227.15015, 8227.15015, 0.61092, 0.61092, CHICAGO OHARE INTL AP ANN CLG .4% CONDNS DB=>MWB, 7/21 14:20:00, 33.30000, 1.49611E-002, 207.33814, 11.15885, 8.95286E-002, 0.00000
 Zone Sizing Information, PERIMETER_MID_ZN_3 ZN, Heating, 10107.20148, 10107.20148, 0.44109, 0.44109, CHICAGO OHARE INTL AP ANN HTG 99.6% CONDNS DB, 1/21 08:00:00, -20.00000, 6.49857E-004, 207.33814, 11.15885, 8.95286E-002, 0.00000
 Zone Sizing Information, PERIMETER_MID_ZN_4 ZN, Cooling, 11796.02270, 11796.02270, 0.87593, 0.87593, CHICAGO OHARE INTL AP ANN CLG .4% CONDNS DB=>MWB, 7/21 16:50:00, 31.97000, 1.49611E-002, 131.25358, 7.06401, 5.66753E-002, 0.00000
 Zone Sizing Information, PERIMETER_MID_ZN_4 ZN, Heating, 6748.74085, 6748.74085, 0.29457, 0.29457, CHICAGO OHARE INTL AP ANN HTG 99.6% CONDNS DB, 1/21 08:00:00, -20.00000, 6.49857E-004, 131.25358, 7.06401, 5.66753E-002, 0.00000
 Zone Sizing Information, PERIMETER_TOP_ZN_1 ZN, Cooling, 13296.33953, 13296.33953, 0.98735, 0.98735, CHICAGO OHARE INTL AP ANN CLG .4% CONDNS DB=>MWB, 7/21 13:10:00, 32.86250, 1.49611E-002, 207.33814, 11.15885, 8.95286E-002, 0.00000
 Zone Sizing Information, PERIMETER_TOP_ZN_1 ZN, Heating, 12668.98733, 12668.98733, 0.55322, 0.55322, CHICAGO OHARE INTL AP ANN HTG 99.6% CONDNS DB, 1/21 08:00:00, -20.00000, 6.49857E-004, 207.33814, 11.15885, 8.95286E-002, 0.00000
 Zone Sizing Information, PERIMETER_TOP_ZN_2 ZN, Cooling, 11863.44526, 11863.44526, 0.87481, 0.87481, CHICAGO OHARE INTL AP ANN CLG .4% CONDNS DB=>MWB, 7/21 08:00:00, 25.53000, 1.49611E-002, 131.26219, 7.06447, 5.66790E-002, 0.00000
 Zone Sizing Information, PERIMETER_TOP_ZN_2 ZN, Heating, 8172.01397, 8172.01397, 0.35686, 0.35686, CHICAGO OHARE INTL AP ANN HTG 99.6% CONDNS DB, 1/21 08:00:00, -20.00000, 6.49857E-004, 131.26219, 7.06447, 5.66790E-002, 0.00000
 Zone Sizing Information, PERIMETER_TOP_ZN_3 ZN, Cooling, 9245.67133, 9245.67133, 0.68656, 0.68656, CHICAGO OHARE INTL AP ANN CLG .4% CONDNS DB=>MWB, 7/21 14:40:00, 33.30000, 1.49611E-002, 207.33814, 11.15885, 8.95286E-002, 0.00000
 Zone Sizing Information, PERIMETER_TOP_ZN_3 ZN, Heating, 12553.35572, 12553.35572, 0.54815, 0.54815, CHICAGO OHARE INTL AP ANN HTG 99.6% CONDNS DB, 1/21 08:00:00, -20.00000, 6.49857E-004, 207.33814, 11.15885, 8.95286E-002, 0.00000
 Zone Sizing Information, PERIMETER_TOP_ZN_4 ZN, Cooling, 12411.93141, 12411.93141, 0.92167, 0.92167, CHICAGO OHARE INTL AP ANN CLG .4% CONDNS DB=>MWB, 7/21 16:40:00, 32.11000, 1.49611E-002, 131.25358, 7.06401, 5.66753E-002, 0.00000
 Zone Sizing Information, PERIMETER_TOP_ZN_4 ZN, Heating, 8280.64373, 8280.64373, 0.36162, 0.36162, CHICAGO OHARE INTL AP ANN HTG 99.6% CONDNS DB, 1/21 08:00:00, -20.00000, 6.49857E-004, 131.25358, 7.06401, 5.66753E-002, 0.00000
! <System Sizing Information>, System Name, Load Type, Peak Load Kind, User Design Capacity, Calc Des Air Flow Rate [m3/s], User Des Air Flow Rate [m3/s], Design Day Name, Date/Time of Peak
 System Sizing Information, 15 ZONE VAV, Cooling, Sensible, 219388.07, 14.76359, 14.76359, CHICAGO OHARE INTL AP ANN CLG .4% CONDNS DB=>MWB, 7/21 00:00:00
 System Sizing Information, 15 ZONE VAV, Heating, Sensible, 83320.48, 6.77440, 6.77440, CHICAGO OHARE INTL AP ANN HTG 99.6% CONDNS DB, 1/21 23:00:00
! <Component Sizing Information>, Component Type, Component Name, Input Field Description, Value
 Component Sizing Information, AirTerminal:SingleDuct:VAV:Reheat, CORE_BOTTOM ZN VAV TERMINAL, Design Size Maximum Air Flow Rate [m3/s], 3.11018
 Component Sizing Information, AirTerminal:SingleDuct:VAV:Reheat, CORE_BOTTOM ZN VAV TERMINAL, Design Size Constant Minimum Air Flow Fraction, 0.24097
 Component Sizing Information, AirTerminal:SingleDuct:VAV:Reheat, CORE_BOTTOM ZN VAV TERMINAL, User-Specified Constant Minimum Air Flow Fraction, 0.10000
 Component Sizing Information, AirTerminal:SingleDuct:VAV:Reheat, CORE_BOTTOM ZN VAV TERMINAL, Design Size Minimum Air Flow Rate [m3/s], 0.31102
 Component Sizing Information, AirTerminal:SingleDuct:VAV:Reheat, CORE_BOTTOM ZN VAV TERMINAL, Design Size Maximum Flow Fraction during Reheat [], 0.64258
 Component Sizing Information, AirTerminal:SingleDuct:VAV:Reheat, CORE_BOTTOM ZN VAV TERMINAL, User-Specified Maximum Flow Fraction during Reheat [], 0.50000
 Component Sizing Information, AirTerminal:SingleDuct:VAV:Reheat, CORE_BOTTOM ZN VAV TERMINAL, Design Size Maximum Flow per Zone Floor Area during Reheat [m3/s-m2], 1.58112E-003
 Component Sizing Information, AirTerminal:SingleDuct:VAV:Reheat, CORE_BOTTOM ZN VAV TERMINAL, Design Size Maximum Reheat Water Flow Rate [m3/s], 2.52399E-004
 Component Sizing Information, AirTerminal:SingleDuct:VAV:Reheat, CORE_BOTTOM ZN VAV TERMINAL, Design Size Reheat Coil Sizing Air Volume Flow Rate [m3/s], 0.34883
 Component Sizing Information, AirTerminal:SingleDuct:VAV:Reheat, CORE_BOTTOM ZN VAV TERMINAL, Design Size Reheat Coil Sizing Inlet Air Temperature [C], 12.77778
 Component Sizing Information, AirTerminal:SingleDuct:VAV:Reheat, CORE_BOTTOM ZN VAV TERMINAL, Design Size Reheat Coil Sizing Inlet Air Humidity Ratio [kgWater/kgDryAir], 8.00000E-003
 Component Sizing Information, Coil:Heating:Water, CORE_BOTTOM ZN REHEAT COIL, Design Size Rated Capacity [W], 11539.36264
 Component Sizing Information, Coil:Heating:Water, CORE_BOTTOM ZN REHEAT COIL, Design Size Maximum Water Flow Rate [m3/s], 2.52399E-004
 Component Sizing Information, Coil:Heating:Water, CORE_BOTTOM ZN REHEAT COIL, Design Size U-Factor Times Area Value [W/K], 837.18680
! <Water Heating Coil Capacity Information>,Component Type,Name,Nominal Total Capacity {W}
Water Heating Coil Capacity Information,Coil:Heating:Water,CORE_BOTTOM ZN REHEAT COIL,20985.17
 Component Sizing Information, AirTerminal:SingleDuct:VAV:Reheat, CORE_MID ZN VAV TERMINAL, Design Size Maximum Air Flow Rate [m3/s], 2.29921
 Component Sizing Information, AirTerminal:SingleDuct:VAV:Reheat, CORE_MID ZN VAV TERMINAL, Design Size Constant Minimum Air Flow Fraction, 0.32596
 Component Sizing Information, AirTerminal:SingleDuct:VAV:Reheat, CORE_MID ZN VAV TERMINAL, User-Specified Constant Minimum Air Flow Fraction, 0.10000
 Component Sizing Information, AirTerminal:SingleDuct:VAV:Reheat, CORE_MID ZN VAV TERMINAL, Design Size Minimum Air Flow Rate [m3/s], 0.22992
 Component Sizing Information, AirTerminal:SingleDuct:VAV:Reheat, CORE_MID ZN VAV TERMINAL, Design Size Maximum Flow Fraction during Reheat [], 0.86923
 Component Sizing Information, AirTerminal:SingleDuct:VAV:Reheat, CORE_MID ZN VAV TERMINAL, User-Specified Maximum Flow Fraction during Reheat [], 0.50000
 Component Sizing Information, AirTerminal:SingleDuct:VAV:Reheat, CORE_MID ZN VAV TERMINAL, Design Size Maximum Flow per Zone Floor Area during Reheat [m3/s-m2], 1.16885E-003
 Component Sizing Information, AirTerminal:SingleDuct:VAV:Reheat, CORE_MID ZN VAV TERMINAL, Design Size Maximum Reheat Water Flow Rate [m3/s], 4.67304E-004
 Component Sizing Information, AirTerminal:SingleDuct:VAV:Reheat, CORE_MID ZN VAV TERMINAL, Design Size Reheat Coil Sizing Air Volume Flow Rate [m3/s], 0.64886
 Component Sizing Information, AirTerminal:SingleDuct:VAV:Reheat, CORE_MID ZN VAV TERMINAL, Design Size Reheat Coil Sizing Inlet Air Temperature [C], 12.77778
 Component Sizing Information, AirTerminal:SingleDuct:VAV:Reheat, CORE_MID ZN VAV TERMINAL, Design Size Reheat Coil Sizing Inlet Air Humidity Ratio [kgWater/kgDryAir], 8.00000E-003
 Component Sizing Information, Coil:Heating:Water, CORE_MID ZN REHEAT COIL, Design Size Rated Capacity [W], 21364.57123
 Component Sizing Information, Coil:Heating:Water, CORE_MID ZN REHEAT COIL, Design Size Maximum Water Flow Rate [m3/s], 4.67304E-004
 Component Sizing Information, Coil:Heating:Water, CORE_MID ZN REHEAT COIL, Design Size U-Factor Times Area Value [W/K], 1539.10121
Water Heating Coil Capacity Information,Coil:Heating:Water,CORE_MID ZN REHEAT COIL,38855.17
 Component Sizing Information, AirTerminal:SingleDuct:VAV:Reheat, CORE_TOP ZN VAV TERMINAL, Design Size Maximum Air Flow Rate [m3/s], 2.32281
 Component Sizing Information, AirTerminal:SingleDuct:VAV:Reheat, CORE_TOP ZN VAV TERMINAL, Design Size Constant Minimum Air Flow Fraction, 0.32265
 Component Sizing Information, AirTerminal:SingleDuct:VAV:Reheat, CORE_TOP ZN VAV TERMINAL, User-Specified Constant Minimum Air Flow Fraction, 0.10000
 Component Sizing Information, AirTerminal:SingleDuct:VAV:Reheat, CORE_TOP ZN VAV TERMINAL, Design Size Minimum Air Flow Rate [m3/s], 0.23228
 Component Sizing Information, AirTerminal:SingleDuct:VAV:Reheat, CORE_TOP ZN VAV TERMINAL, Design Size Maximum Flow Fraction during Reheat [], 0.86040
 Component Sizing Information, AirTerminal:SingleDuct:VAV:Reheat, CORE_TOP ZN VAV TERMINAL, User-Specified Maximum Flow Fraction during Reheat [], 0.50000
 Component Sizing Information, AirTerminal:SingleDuct:VAV:Reheat, CORE_TOP ZN VAV TERMINAL, Design Size Maximum Flow per Zone Floor Area during Reheat [m3/s-m2], 1.18085E-003
 Component Sizing Information, AirTerminal:SingleDuct:VAV:Reheat, CORE_TOP ZN VAV TERMINAL, Design Size Maximum Reheat Water Flow Rate [m3/s], 8.42806E-004
 Component Sizing Information, AirTerminal:SingleDuct:VAV:Reheat, CORE_TOP ZN VAV TERMINAL, Design Size Reheat Coil Sizing Air Volume Flow Rate [m3/s], 1.17387
 Component Sizing Information, AirTerminal:SingleDuct:VAV:Reheat, CORE_TOP ZN VAV TERMINAL, Design Size Reheat Coil Sizing Inlet Air Temperature [C], 12.77778
 Component Sizing Information, AirTerminal:SingleDuct:VAV:Reheat, CORE_TOP ZN VAV TERMINAL, Design Size Reheat Coil Sizing Inlet Air Humidity Ratio [kgWater/kgDryAir], 8.00000E-003
 Component Sizing Information, Coil:Heating:Water, CORE_TOP ZN REHEAT COIL, Design Size Rated Capacity [W], 38532.05768
 Component Sizing Information, Coil:Heating:Water, CORE_TOP ZN REHEAT COIL, Design Size Maximum Water Flow Rate [m3/s], 8.42806E-004
 Component Sizing Information, Coil:Heating:Water, CORE_TOP ZN REHEAT COIL, Design Size U-Factor Times Area Value [W/K], 2762.85764
Water Heating Coil Capacity Information,Coil:Heating:Water,CORE_TOP ZN REHEAT COIL,70078.05
 Component Sizing Information, AirTerminal:SingleDuct:VAV:Reheat, PERIMETER_BOT_ZN_1 ZN VAV TERMINAL, Design Size Maximum Air Flow Rate [m3/s], 0.80511
 Component Sizing Information, AirTerminal:SingleDuct:VAV:Reheat, PERIMETER_BOT_ZN_1 ZN VAV TERMINAL, Design Size Constant Minimum Air Flow Fraction, 0.19624
 Component Sizing Information, AirTerminal:SingleDuct:VAV:Reheat, PERIMETER_BOT_ZN_1 ZN VAV TERMINAL, User-Specified Constant Minimum Air Flow Fraction, 0.10000
 Component Sizing Information, AirTerminal:SingleDuct:VAV:Reheat, PERIMETER_BOT_ZN_1 ZN VAV TERMINAL, Design Size Minimum Air Flow Rate [m3/s], 8.05111E-002
 Component Sizing Information, AirTerminal:SingleDuct:VAV:Reheat, PERIMETER_BOT_ZN_1 ZN VAV TERMINAL, Design Size Maximum Flow Fraction during Reheat [], 0.52330
 Component Sizing Information, AirTerminal:SingleDuct:VAV:Reheat, PERIMETER_BOT_ZN_1 ZN VAV TERMINAL, User-Specified Maximum Flow Fraction during Reheat [], 0.50000
 Component Sizing Information, AirTerminal:SingleDuct:VAV:Reheat, PERIMETER_BOT_ZN_1 ZN VAV TERMINAL, Design Size Maximum Flow per Zone Floor Area during Reheat [m3/s-m2], 1.94154E-003
 Component Sizing Information, AirTerminal:SingleDuct:VAV:Reheat, PERIMETER_BOT_ZN_1 ZN VAV TERMINAL, Design Size Maximum Reheat Water Flow Rate [m3/s], 2.68705E-004
 Component Sizing Information, AirTerminal:SingleDuct:VAV:Reheat, PERIMETER_BOT_ZN_1 ZN VAV TERMINAL, Design Size Reheat Coil Sizing Air Volume Flow Rate [m3/s], 0.37475
 Component Sizing Information, AirTerminal:SingleDuct:VAV:Reheat, PERIMETER_BOT_ZN_1 ZN VAV TERMINAL, Design Size Reheat Coil Sizing Inlet Air Temperature [C], 12.77778
 Component Sizing Information, AirTerminal:SingleDuct:VAV:Reheat, PERIMETER_BOT_ZN_1 ZN VAV TERMINAL, Design Size Reheat Coil Sizing Inlet Air Humidity Ratio [kgWater/kgDryAir], 8.00000E-003
 Component Sizing Information, Coil:Heating:Water, PERIMETER_BOT_ZN_1 ZN REHEAT COIL, Design Size Rated Capacity [W], 12284.87153
 Component Sizing Information, Coil:Heating:Water, PERIMETER_BOT_ZN_1 ZN REHEAT COIL, Design Size Maximum Water Flow Rate [m3/s], 2.68705E-004
 Component Sizing Information, Coil:Heating:Water, PERIMETER_BOT_ZN_1 ZN REHEAT COIL, Design Size U-Factor Times Area Value [W/K], 879.10463
Water Heating Coil Capacity Information,Coil:Heating:Water,PERIMETER_BOT_ZN_1 ZN REHEAT COIL,22342.55
 Component Sizing Information, AirTerminal:SingleDuct:VAV:Reheat, PERIMETER_BOT_ZN_2 ZN VAV TERMINAL, Design Size Maximum Air Flow Rate [m3/s], 0.78945
 Component Sizing Information, AirTerminal:SingleDuct:VAV:Reheat, PERIMETER_BOT_ZN_2 ZN VAV TERMINAL, Design Size Constant Minimum Air Flow Fraction, 0.12670
 Component Sizing Information, AirTerminal:SingleDuct:VAV:Reheat, PERIMETER_BOT_ZN_2 ZN VAV TERMINAL, User-Specified Constant Minimum Air Flow Fraction, 0.10000
 Component Sizing Information, AirTerminal:SingleDuct:VAV:Reheat, PERIMETER_BOT_ZN_2 ZN VAV TERMINAL, Design Size Minimum Air Flow Rate [m3/s], 7.89446E-002
 Component Sizing Information, AirTerminal:SingleDuct:VAV:Reheat, PERIMETER_BOT_ZN_2 ZN VAV TERMINAL, Design Size Maximum Flow Fraction during Reheat [], 0.33786
 Component Sizing Information, AirTerminal:SingleDuct:VAV:Reheat, PERIMETER_BOT_ZN_2 ZN VAV TERMINAL, User-Specified Maximum Flow Fraction during Reheat [], 0.50000
 Component Sizing Information, AirTerminal:SingleDuct:VAV:Reheat, PERIMETER_BOT_ZN_2 ZN VAV TERMINAL, Design Size Maximum Flow per Zone Floor Area during Reheat [m3/s-m2], 3.00713E-003
 Component Sizing Information, AirTerminal:SingleDuct:VAV:Reheat, PERIMETER_BOT_ZN_2 ZN VAV TERMINAL, Design Size Maximum Reheat Water Flow Rate [m3/s], 1.74874E-004
 Component Sizing Information, AirTerminal:SingleDuct:VAV:Reheat, PERIMETER_BOT_ZN_2 ZN VAV TERMINAL, Design Size Reheat Coil Sizing Air Volume Flow Rate [m3/s], 0.24391
 Component Sizing Information, AirTerminal:SingleDuct:VAV:Reheat, PERIMETER_BOT_ZN_2 ZN VAV TERMINAL, Design Size Reheat Coil Sizing Inlet Air Temperature [C], 12.77778
 Component Sizing Information, AirTerminal:SingleDuct:VAV:Reheat, PERIMETER_BOT_ZN_2 ZN VAV TERMINAL, Design Size Reheat Coil Sizing Inlet Air Humidity Ratio [kgWater/kgDryAir], 8.00000E-003
 Component Sizing Information, Coil:Heating:Water, PERIMETER_BOT_ZN_2 ZN REHEAT COIL, Design Size Rated Capacity [W], 7995.00671
 Component Sizing Information, Coil:Heating:Water, PERIMETER_BOT_ZN_2 ZN REHEAT COIL, Design Size Maximum Water Flow Rate [m3/s], 1.74874E-004
 Component Sizing Information, Coil:Heating:Water, PERIMETER_BOT_ZN_2 ZN REHEAT COIL, Design Size U-Factor Times Area Value [W/K], 572.06703
Water Heating Coil Capacity Information,Coil:Heating:Water,PERIMETER_BOT_ZN_2 ZN REHEAT COIL,14540.56
 Component Sizing Information, AirTerminal:SingleDuct:VAV:Reheat, PERIMETER_BOT_ZN_3 ZN VAV TERMINAL, Design Size Maximum Air Flow Rate [m3/s], 0.50141
 Component Sizing Information, AirTerminal:SingleDuct:VAV:Reheat, PERIMETER_BOT_ZN_3 ZN VAV TERMINAL, Design Size Constant Minimum Air Flow Fraction, 0.31510
 Component Sizing Information, AirTerminal:SingleDuct:VAV:Reheat, PERIMETER_BOT_ZN_3 ZN VAV TERMINAL, User-Specified Constant Minimum Air Flow Fraction, 0.10000
 Component Sizing Information, AirTerminal:SingleDuct:VAV:Reheat, PERIMETER_BOT_ZN_3 ZN VAV TERMINAL, Design Size Minimum Air Flow Rate [m3/s], 5.01406E-002
 Component Sizing Information, AirTerminal:SingleDuct:VAV:Reheat, PERIMETER_BOT_ZN_3 ZN VAV TERMINAL, Design Size Maximum Flow Fraction during Reheat [], 0.84026
 Component Sizing Information, AirTerminal:SingleDuct:VAV:Reheat, PERIMETER_BOT_ZN_3 ZN VAV TERMINAL, User-Specified Maximum Flow Fraction during Reheat [], 0.50000
 Component Sizing Information, AirTerminal:SingleDuct:VAV:Reheat, PERIMETER_BOT_ZN_3 ZN VAV TERMINAL, Design Size Maximum Flow per Zone Floor Area during Reheat [m3/s-m2], 1.20915E-003
 Component Sizing Information, AirTerminal:SingleDuct:VAV:Reheat, PERIMETER_BOT_ZN_3 ZN VAV TERMINAL, Design Size Maximum Reheat Water Flow Rate [m3/s], 2.63605E-004
 Component Sizing Information, AirTerminal:SingleDuct:VAV:Reheat, PERIMETER_BOT_ZN_3 ZN VAV TERMINAL, Design Size Reheat Coil Sizing Air Volume Flow Rate [m3/s], 0.36762
 Component Sizing Information, AirTerminal:SingleDuct:VAV:Reheat, PERIMETER_BOT_ZN_3 ZN VAV TERMINAL, Design Size Reheat Coil Sizing Inlet Air Temperature [C], 12.77778
 Component Sizing Information, AirTerminal:SingleDuct:VAV:Reheat, PERIMETER_BOT_ZN_3 ZN VAV TERMINAL, Design Size Reheat Coil Sizing Inlet Air Humidity Ratio [kgWater/kgDryAir], 8.00000E-003
 Component Sizing Information, Coil:Heating:Water, PERIMETER_BOT_ZN_3 ZN REHEAT COIL, Design Size Rated Capacity [W], 12051.69624
 Component Sizing Information, Coil:Heating:Water, PERIMETER_BOT_ZN_3 ZN REHEAT COIL, Design Size Maximum Water Flow Rate [m3/s], 2.63605E-004
 Component Sizing Information, Coil:Heating:Water, PERIMETER_BOT_ZN_3 ZN REHEAT COIL, Design Size U-Factor Times Area Value [W/K], 862.47580
Water Heating Coil Capacity Information,Coil:Heating:Water,PERIMETER_BOT_ZN_3 ZN REHEAT COIL,21918.47
 Component Sizing Information, AirTerminal:SingleDuct:VAV:Reheat, PERIMETER_BOT_ZN_4 ZN VAV TERMINAL, Design Size Maximum Air Flow Rate [m3/s], 0.79929
 Component Sizing Information, AirTerminal:SingleDuct:VAV:Reheat, PERIMETER_BOT_ZN_4 ZN VAV TERMINAL, Design Size Constant Minimum Air Flow Fraction, 0.12513
 Component Sizing Information, AirTerminal:SingleDuct:VAV:Reheat, PERIMETER_BOT_ZN_4 ZN VAV TERMINAL, User-Specified Constant Minimum Air Flow Fraction, 0.10000
 Component Sizing Information, AirTerminal:SingleDuct:VAV:Reheat, PERIMETER_BOT_ZN_4 ZN VAV TERMINAL, Design Size Minimum Air Flow Rate [m3/s], 7.99286E-002
 Component Sizing Information, AirTerminal:SingleDuct:VAV:Reheat, PERIMETER_BOT_ZN_4 ZN VAV TERMINAL, Design Size Maximum Flow Fraction during Reheat [], 0.33368
 Component Sizing Information, AirTerminal:SingleDuct:VAV:Reheat, PERIMETER_BOT_ZN_4 ZN VAV TERMINAL, User-Specified Maximum Flow Fraction during Reheat [], 0.50000
 Component Sizing Information, AirTerminal:SingleDuct:VAV:Reheat, PERIMETER_BOT_ZN_4 ZN VAV TERMINAL, Design Size Maximum Flow per Zone Floor Area during Reheat [m3/s-m2], 3.04481E-003
 Component Sizing Information, AirTerminal:SingleDuct:VAV:Reheat, PERIMETER_BOT_ZN_4 ZN VAV TERMINAL, Design Size Maximum Reheat Water Flow Rate [m3/s], 1.77688E-004
 Component Sizing Information, AirTerminal:SingleDuct:VAV:Reheat, PERIMETER_BOT_ZN_4 ZN VAV TERMINAL, Design Size Reheat Coil Sizing Air Volume Flow Rate [m3/s], 0.24784
 Component Sizing Information, AirTerminal:SingleDuct:VAV:Reheat, PERIMETER_BOT_ZN_4 ZN VAV TERMINAL, Design Size Reheat Coil Sizing Inlet Air Temperature [C], 12.77778
 Component Sizing Information, AirTerminal:SingleDuct:VAV:Reheat, PERIMETER_BOT_ZN_4 ZN VAV TERMINAL, Design Size Reheat Coil Sizing Inlet Air Humidity Ratio [kgWater/kgDryAir], 8.00000E-003
 Component Sizing Information, Coil:Heating:Water, PERIMETER_BOT_ZN_4 ZN REHEAT COIL, Design Size Rated Capacity [W], 8123.66142
 Component Sizing Information, Coil:Heating:Water, PERIMETER_BOT_ZN_4 ZN REHEAT COIL, Design Size Maximum Water Flow Rate [m3/s], 1.77688E-004
 Component Sizing Information, Coil:Heating:Water, PERIMETER_BOT_ZN_4 ZN REHEAT COIL, Design Size U-Factor Times Area Value [W/K], 581.24104
Water Heating Coil Capacity Information,Coil:Heating:Water,PERIMETER_BOT_ZN_4 ZN REHEAT COIL,14774.55
 Component Sizing Information, AirTerminal:SingleDuct:VAV:Reheat, PERIMETER_MID_ZN_1 ZN VAV TERMINAL, Design Size Maximum Air Flow Rate [m3/s], 0.91997
 Component Sizing Information, AirTerminal:SingleDuct:VAV:Reheat, PERIMETER_MID_ZN_1 ZN VAV TERMINAL, Design Size Constant Minimum Air Flow Fraction, 0.17174
 Component Sizing Information, AirTerminal:SingleDuct:VAV:Reheat, PERIMETER_MID_ZN_1 ZN VAV TERMINAL, User-Specified Constant Minimum Air Flow Fraction, 0.10000
 Component Sizing Information, AirTerminal:SingleDuct:VAV:Reheat, PERIMETER_MID_ZN_1 ZN VAV TERMINAL, Design Size Minimum Air Flow Rate [m3/s], 9.19973E-002
 Component Sizing Information, AirTerminal:SingleDuct:VAV:Reheat, PERIMETER_MID_ZN_1 ZN VAV TERMINAL, Design Size Maximum Flow Fraction during Reheat [], 0.45796
 Component Sizing Information, AirTerminal:SingleDuct:VAV:Reheat, PERIMETER_MID_ZN_1 ZN VAV TERMINAL, User-Specified Maximum Flow Fraction during Reheat [], 0.50000
 Component Sizing Information, AirTerminal:SingleDuct:VAV:Reheat, PERIMETER_MID_ZN_1 ZN VAV TERMINAL, Design Size Maximum Flow per Zone Floor Area during Reheat [m3/s-m2], 2.21853E-003
 Component Sizing Information, AirTerminal:SingleDuct:VAV:Reheat, PERIMETER_MID_ZN_1 ZN VAV TERMINAL, Design Size Maximum Reheat Water Flow Rate [m3/s], 3.20639E-004
 Component Sizing Information, AirTerminal:SingleDuct:VAV:Reheat, PERIMETER_MID_ZN_1 ZN VAV TERMINAL, Design Size Reheat Coil Sizing Air Volume Flow Rate [m3/s], 0.44736
 Component Sizing Information, AirTerminal:SingleDuct:VAV:Reheat, PERIMETER_MID_ZN_1 ZN VAV TERMINAL, Design Size Reheat Coil Sizing Inlet Air Temperature [C], 12.77778
 Component Sizing Information, AirTerminal:SingleDuct:VAV:Reheat, PERIMETER_MID_ZN_1 ZN VAV TERMINAL, Design Size Reheat Coil Sizing Inlet Air Humidity Ratio [kgWater/kgDryAir], 8.00000E-003
 Component Sizing Information, Coil:Heating:Water, PERIMETER_MID_ZN_1 ZN REHEAT COIL, Design Size Rated Capacity [W], 14659.21299
 Component Sizing Information, Coil:Heating:Water, PERIMETER_MID_ZN_1 ZN REHEAT COIL, Design Size Maximum Water Flow Rate [m3/s], 3.20639E-004
 Component Sizing Information, Coil:Heating:Water, PERIMETER_MID_ZN_1 ZN REHEAT COIL, Design Size U-Factor Times Area Value [W/K], 1048.37925
Water Heating Coil Capacity Information,Coil:Heating:Water,PERIMETER_MID_ZN_1 ZN REHEAT COIL,26660.82
 Component Sizing Information, AirTerminal:SingleDuct:VAV:Reheat, PERIMETER_MID_ZN_2 ZN VAV TERMINAL, Design Size Maximum Air Flow Rate [m3/s], 0.87308
 Component Sizing Information, AirTerminal:SingleDuct:VAV:Reheat, PERIMETER_MID_ZN_2 ZN VAV TERMINAL, Design Size Constant Minimum Air Flow Fraction, 0.11456
 Component Sizing Information, AirTerminal:SingleDuct:VAV:Reheat, PERIMETER_MID_ZN_2 ZN VAV TERMINAL, User-Specified Constant Minimum Air Flow Fraction, 0.10000
 Component Sizing Information, AirTerminal:SingleDuct:VAV:Reheat, PERIMETER_MID_ZN_2 ZN VAV TERMINAL, Design Size Minimum Air Flow Rate [m3/s], 8.73075E-002
 Component Sizing Information, AirTerminal:SingleDuct:VAV:Reheat, PERIMETER_MID_ZN_2 ZN VAV TERMINAL, Design Size Maximum Flow Fraction during Reheat [], 0.30550
 Component Sizing Information, AirTerminal:SingleDuct:VAV:Reheat, PERIMETER_MID_ZN_2 ZN VAV TERMINAL, User-Specified Maximum Flow Fraction during Reheat [], 0.50000
 Component Sizing Information, AirTerminal:SingleDuct:VAV:Reheat, PERIMETER_MID_ZN_2 ZN VAV TERMINAL, Design Size Maximum Flow per Zone Floor Area during Reheat [m3/s-m2], 3.32569E-003
 Component Sizing Information, AirTerminal:SingleDuct:VAV:Reheat, PERIMETER_MID_ZN_2 ZN VAV TERMINAL, Design Size Maximum Reheat Water Flow Rate [m3/s], 2.07830E-004
 Component Sizing Information, AirTerminal:SingleDuct:VAV:Reheat, PERIMETER_MID_ZN_2 ZN VAV TERMINAL, Design Size Reheat Coil Sizing Air Volume Flow Rate [m3/s], 0.28998
 Component Sizing Information, AirTerminal:SingleDuct:VAV:Reheat, PERIMETER_MID_ZN_2 ZN VAV TERMINAL, Design Size Reheat Coil Sizing Inlet Air Temperature [C], 12.77778
 Component Sizing Information, AirTerminal:SingleDuct:VAV:Reheat, PERIMETER_MID_ZN_2 ZN VAV TERMINAL, Design Size Reheat Coil Sizing Inlet Air Humidity Ratio [kgWater/kgDryAir], 8.00000E-003
 Component Sizing Information, Coil:Heating:Water, PERIMETER_MID_ZN_2 ZN REHEAT COIL, Design Size Rated Capacity [W], 9501.72021
 Component Sizing Information, Coil:Heating:Water, PERIMETER_MID_ZN_2 ZN REHEAT COIL, Design Size Maximum Water Flow Rate [m3/s], 2.07830E-004
 Component Sizing Information, Coil:Heating:Water, PERIMETER_MID_ZN_2 ZN REHEAT COIL, Design Size U-Factor Times Area Value [W/K], 679.48312
Water Heating Coil Capacity Information,Coil:Heating:Water,PERIMETER_MID_ZN_2 ZN REHEAT COIL,17280.85
 Component Sizing Information, AirTerminal:SingleDuct:VAV:Reheat, PERIMETER_MID_ZN_3 ZN VAV TERMINAL, Design Size Maximum Air Flow Rate [m3/s], 0.61092
 Component Sizing Information, AirTerminal:SingleDuct:VAV:Reheat, PERIMETER_MID_ZN_3 ZN VAV TERMINAL, Design Size Constant Minimum Air Flow Fraction, 0.25861
 Component Sizing Information, AirTerminal:SingleDuct:VAV:Reheat, PERIMETER_MID_ZN_3 ZN VAV TERMINAL, User-Specified Constant Minimum Air Flow Fraction, 0.10000
 Component Sizing Information, AirTerminal:SingleDuct:VAV:Reheat, PERIMETER_MID_ZN_3 ZN VAV TERMINAL, Design Size Minimum Air Flow Rate [m3/s], 6.10925E-002
 Component Sizing Information, AirTerminal:SingleDuct:VAV:Reheat, PERIMETER_MID_ZN_3 ZN VAV TERMINAL, Design Size Maximum Flow Fraction during Reheat [], 0.68963
 Component Sizing Information, AirTerminal:SingleDuct:VAV:Reheat, PERIMETER_MID_ZN_3 ZN VAV TERMINAL, User-Specified Maximum Flow Fraction during Reheat [], 0.50000
 Component Sizing Information, AirTerminal:SingleDuct:VAV:Reheat, PERIMETER_MID_ZN_3 ZN VAV TERMINAL, Design Size Maximum Flow per Zone Floor Area during Reheat [m3/s-m2], 1.47326E-003
 Component Sizing Information, AirTerminal:SingleDuct:VAV:Reheat, PERIMETER_MID_ZN_3 ZN VAV TERMINAL, Design Size Maximum Reheat Water Flow Rate [m3/s], 3.16150E-004
 Component Sizing Information, AirTerminal:SingleDuct:VAV:Reheat, PERIMETER_MID_ZN_3 ZN VAV TERMINAL, Design Size Reheat Coil Sizing Air Volume Flow Rate [m3/s], 0.44109
 Component Sizing Information, AirTerminal:SingleDuct:VAV:Reheat, PERIMETER_MID_ZN_3 ZN VAV TERMINAL, Design Size Reheat Coil Sizing Inlet Air Temperature [C], 12.77778
 Component Sizing Information, AirTerminal:SingleDuct:VAV:Reheat, PERIMETER_MID_ZN_3 ZN VAV TERMINAL, Design Size Reheat Coil Sizing Inlet Air Humidity Ratio [kgWater/kgDryAir], 8.00000E-003
 Component Sizing Information, Coil:Heating:Water, PERIMETER_MID_ZN_3 ZN REHEAT COIL, Design Size Rated Capacity [W], 14453.98554
 Component Sizing Information, Coil:Heating:Water, PERIMETER_MID_ZN_3 ZN REHEAT COIL, Design Size Maximum Water Flow Rate [m3/s], 3.16150E-004
 Component Sizing Information, Coil:Heating:Water, PERIMETER_MID_ZN_3 ZN REHEAT COIL, Design Size U-Factor Times Area Value [W/K], 1033.74451
Water Heating Coil Capacity Information,Coil:Heating:Water,PERIMETER_MID_ZN_3 ZN REHEAT COIL,26287.57
 Component Sizing Information, AirTerminal:SingleDuct:VAV:Reheat, PERIMETER_MID_ZN_4 ZN VAV TERMINAL, Design Size Maximum Air Flow Rate [m3/s], 0.87593
 Component Sizing Information, AirTerminal:SingleDuct:VAV:Reheat, PERIMETER_MID_ZN_4 ZN VAV TERMINAL, Design Size Constant Minimum Air Flow Fraction, 0.11418
 Component Sizing Information, AirTerminal:SingleDuct:VAV:Reheat, PERIMETER_MID_ZN_4 ZN VAV TERMINAL, User-Specified Constant Minimum Air Flow Fraction, 0.10000
 Component Sizing Information, AirTerminal:SingleDuct:VAV:Reheat, PERIMETER_MID_ZN_4 ZN VAV TERMINAL, Design Size Minimum Air Flow Rate [m3/s], 8.75929E-002
 Component Sizing Information, AirTerminal:SingleDuct:VAV:Reheat, PERIMETER_MID_ZN_4 ZN VAV TERMINAL, Design Size Maximum Flow Fraction during Reheat [], 0.30449
 Component Sizing Information, AirTerminal:SingleDuct:VAV:Reheat, PERIMETER_MID_ZN_4 ZN VAV TERMINAL, User-Specified Maximum Flow Fraction during Reheat [], 0.50000
 Component Sizing Information, AirTerminal:SingleDuct:VAV:Reheat, PERIMETER_MID_ZN_4 ZN VAV TERMINAL, Design Size Maximum Flow per Zone Floor Area during Reheat [m3/s-m2], 3.33678E-003
 Component Sizing Information, AirTerminal:SingleDuct:VAV:Reheat, PERIMETER_MID_ZN_4 ZN VAV TERMINAL, Design Size Maximum Reheat Water Flow Rate [m3/s], 2.11109E-004
 Component Sizing Information, AirTerminal:SingleDuct:VAV:Reheat, PERIMETER_MID_ZN_4 ZN VAV TERMINAL, Design Size Reheat Coil Sizing Air Volume Flow Rate [m3/s], 0.29457
 Component Sizing Information, AirTerminal:SingleDuct:VAV:Reheat, PERIMETER_MID_ZN_4 ZN VAV TERMINAL, Design Size Reheat Coil Sizing Inlet Air Temperature [C], 12.77778
 Component Sizing Information, AirTerminal:SingleDuct:VAV:Reheat, PERIMETER_MID_ZN_4 ZN VAV TERMINAL, Design Size Reheat Coil Sizing Inlet Air Humidity Ratio [kgWater/kgDryAir], 8.00000E-003
 Component Sizing Information, Coil:Heating:Water, PERIMETER_MID_ZN_4 ZN REHEAT COIL, Design Size Rated Capacity [W], 9651.66147
 Component Sizing Information, Coil:Heating:Water, PERIMETER_MID_ZN_4 ZN REHEAT COIL, Design Size Maximum Water Flow Rate [m3/s], 2.11109E-004
 Component Sizing Information, Coil:Heating:Water, PERIMETER_MID_ZN_4 ZN REHEAT COIL, Design Size U-Factor Times Area Value [W/K], 690.17418
Water Heating Coil Capacity Information,Coil:Heating:Water,PERIMETER_MID_ZN_4 ZN REHEAT COIL,17553.55
 Component Sizing Information, AirTerminal:SingleDuct:VAV:Reheat, PERIMETER_TOP_ZN_1 ZN VAV TERMINAL, Design Size Maximum Air Flow Rate [m3/s], 0.98735
 Component Sizing Information, AirTerminal:SingleDuct:VAV:Reheat, PERIMETER_TOP_ZN_1 ZN VAV TERMINAL, Design Size Constant Minimum Air Flow Fraction, 0.16002
 Component Sizing Information, AirTerminal:SingleDuct:VAV:Reheat, PERIMETER_TOP_ZN_1 ZN VAV TERMINAL, User-Specified Constant Minimum Air Flow Fraction, 0.10000
 Component Sizing Information, AirTerminal:SingleDuct:VAV:Reheat, PERIMETER_TOP_ZN_1 ZN VAV TERMINAL, Design Size Minimum Air Flow Rate [m3/s], 9.87346E-002
 Component Sizing Information, AirTerminal:SingleDuct:VAV:Reheat, PERIMETER_TOP_ZN_1 ZN VAV TERMINAL, Design Size Maximum Flow Fraction during Reheat [], 0.42671
 Component Sizing Information, AirTerminal:SingleDuct:VAV:Reheat, PERIMETER_TOP_ZN_1 ZN VAV TERMINAL, User-Specified Maximum Flow Fraction during Reheat [], 0.50000
 Component Sizing Information, AirTerminal:SingleDuct:VAV:Reheat, PERIMETER_TOP_ZN_1 ZN VAV TERMINAL, Design Size Maximum Flow per Zone Floor Area during Reheat [m3/s-m2], 2.38100E-003
 Component Sizing Information, AirTerminal:SingleDuct:VAV:Reheat, PERIMETER_TOP_ZN_1 ZN VAV TERMINAL, Design Size Maximum Reheat Water Flow Rate [m3/s], 3.96359E-004
 Component Sizing Information, AirTerminal:SingleDuct:VAV:Reheat, PERIMETER_TOP_ZN_1 ZN VAV TERMINAL, Design Size Reheat Coil Sizing Air Volume Flow Rate [m3/s], 0.55322
 Component Sizing Information, AirTerminal:SingleDuct:VAV:Reheat, PERIMETER_TOP_ZN_1 ZN VAV TERMINAL, Design Size Reheat Coil Sizing Inlet Air Temperature [C], 12.77778
 Component Sizing Information, AirTerminal:SingleDuct:VAV:Reheat, PERIMETER_TOP_ZN_1 ZN VAV TERMINAL, Design Size Reheat Coil Sizing Inlet Air Humidity Ratio [kgWater/kgDryAir], 8.00000E-003
 Component Sizing Information, Coil:Heating:Water, PERIMETER_TOP_ZN_1 ZN REHEAT COIL, Design Size Rated Capacity [W], 18121.05856
 Component Sizing Information, Coil:Heating:Water, PERIMETER_TOP_ZN_1 ZN REHEAT COIL, Design Size Maximum Water Flow Rate [m3/s], 3.96359E-004
 Component Sizing Information, Coil:Heating:Water, PERIMETER_TOP_ZN_1 ZN REHEAT COIL, Design Size U-Factor Times Area Value [W/K], 1295.24643
Water Heating Coil Capacity Information,Coil:Heating:Water,PERIMETER_TOP_ZN_1 ZN REHEAT COIL,32956.95
 Component Sizing Information, AirTerminal:SingleDuct:VAV:Reheat, PERIMETER_TOP_ZN_2 ZN VAV TERMINAL, Design Size Maximum Air Flow Rate [m3/s], 0.87481
 Component Sizing Information, AirTerminal:SingleDuct:VAV:Reheat, PERIMETER_TOP_ZN_2 ZN VAV TERMINAL, Design Size Constant Minimum Air Flow Fraction, 0.11434
 Component Sizing Information, AirTerminal:SingleDuct:VAV:Reheat, PERIMETER_TOP_ZN_2 ZN VAV TERMINAL, User-Specified Constant Minimum Air Flow Fraction, 0.10000
 Component Sizing Information, AirTerminal:SingleDuct:VAV:Reheat, PERIMETER_TOP_ZN_2 ZN VAV TERMINAL, Design Size Minimum Air Flow Rate [m3/s], 8.74807E-002
 Component Sizing Information, AirTerminal:SingleDuct:VAV:Reheat, PERIMETER_TOP_ZN_2 ZN VAV TERMINAL, Design Size Maximum Flow Fraction during Reheat [], 0.30490
 Component Sizing Information, AirTerminal:SingleDuct:VAV:Reheat, PERIMETER_TOP_ZN_2 ZN VAV TERMINAL, User-Specified Maximum Flow Fraction during Reheat [], 0.50000
 Component Sizing Information, AirTerminal:SingleDuct:VAV:Reheat, PERIMETER_TOP_ZN_2 ZN VAV TERMINAL, Design Size Maximum Flow per Zone Floor Area during Reheat [m3/s-m2], 3.33229E-003
 Component Sizing Information, AirTerminal:SingleDuct:VAV:Reheat, PERIMETER_TOP_ZN_2 ZN VAV TERMINAL, Design Size Maximum Reheat Water Flow Rate [m3/s], 2.55670E-004
 Component Sizing Information, AirTerminal:SingleDuct:VAV:Reheat, PERIMETER_TOP_ZN_2 ZN VAV TERMINAL, Design Size Reheat Coil Sizing Air Volume Flow Rate [m3/s], 0.35686
 Component Sizing Information, AirTerminal:SingleDuct:VAV:Reheat, PERIMETER_TOP_ZN_2 ZN VAV TERMINAL, Design Size Reheat Coil Sizing Inlet Air Temperature [C], 12.77778
 Component Sizing Information, AirTerminal:SingleDuct:VAV:Reheat, PERIMETER_TOP_ZN_2 ZN VAV TERMINAL, Design Size Reheat Coil Sizing Inlet Air Humidity Ratio [kgWater/kgDryAir], 8.00000E-003
 Component Sizing Information, Coil:Heating:Water, PERIMETER_TOP_ZN_2 ZN REHEAT COIL, Design Size Rated Capacity [W], 11688.93449
 Component Sizing Information, Coil:Heating:Water, PERIMETER_TOP_ZN_2 ZN REHEAT COIL, Design Size Maximum Water Flow Rate [m3/s], 2.55670E-004
 Component Sizing Information, Coil:Heating:Water, PERIMETER_TOP_ZN_2 ZN REHEAT COIL, Design Size U-Factor Times Area Value [W/K], 835.45412
Water Heating Coil Capacity Information,Coil:Heating:Water,PERIMETER_TOP_ZN_2 ZN REHEAT COIL,21258.79
 Component Sizing Information, AirTerminal:SingleDuct:VAV:Reheat, PERIMETER_TOP_ZN_3 ZN VAV TERMINAL, Design Size Maximum Air Flow Rate [m3/s], 0.68656
 Component Sizing Information, AirTerminal:SingleDuct:VAV:Reheat, PERIMETER_TOP_ZN_3 ZN VAV TERMINAL, Design Size Constant Minimum Air Flow Fraction, 0.23012
 Component Sizing Information, AirTerminal:SingleDuct:VAV:Reheat, PERIMETER_TOP_ZN_3 ZN VAV TERMINAL, User-Specified Constant Minimum Air Flow Fraction, 0.10000
 Component Sizing Information, AirTerminal:SingleDuct:VAV:Reheat, PERIMETER_TOP_ZN_3 ZN VAV TERMINAL, Design Size Minimum Air Flow Rate [m3/s], 6.86559E-002
 Component Sizing Information, AirTerminal:SingleDuct:VAV:Reheat, PERIMETER_TOP_ZN_3 ZN VAV TERMINAL, Design Size Maximum Flow Fraction during Reheat [], 0.61366
 Component Sizing Information, AirTerminal:SingleDuct:VAV:Reheat, PERIMETER_TOP_ZN_3 ZN VAV TERMINAL, User-Specified Maximum Flow Fraction during Reheat [], 0.50000
 Component Sizing Information, AirTerminal:SingleDuct:VAV:Reheat, PERIMETER_TOP_ZN_3 ZN VAV TERMINAL, Design Size Maximum Flow per Zone Floor Area during Reheat [m3/s-m2], 1.65565E-003
 Component Sizing Information, AirTerminal:SingleDuct:VAV:Reheat, PERIMETER_TOP_ZN_3 ZN VAV TERMINAL, Design Size Maximum Reheat Water Flow Rate [m3/s], 3.92738E-004
 Component Sizing Information, AirTerminal:SingleDuct:VAV:Reheat, PERIMETER_TOP_ZN_3 ZN VAV TERMINAL, Design Size Reheat Coil Sizing Air Volume Flow Rate [m3/s], 0.54815
 Component Sizing Information, AirTerminal:SingleDuct:VAV:Reheat, PERIMETER_TOP_ZN_3 ZN VAV TERMINAL, Design Size Reheat Coil Sizing Inlet Air Temperature [C], 12.77778
 Component Sizing Information, AirTerminal:SingleDuct:VAV:Reheat, PERIMETER_TOP_ZN_3 ZN VAV TERMINAL, Design Size Reheat Coil Sizing Inlet Air Humidity Ratio [kgWater/kgDryAir], 8.00000E-003
 Component Sizing Information, Coil:Heating:Water, PERIMETER_TOP_ZN_3 ZN REHEAT COIL, Design Size Rated Capacity [W], 17955.52190
 Component Sizing Information, Coil:Heating:Water, PERIMETER_TOP_ZN_3 ZN REHEAT COIL, Design Size Maximum Water Flow Rate [m3/s], 3.92738E-004
 Component Sizing Information, Coil:Heating:Water, PERIMETER_TOP_ZN_3 ZN REHEAT COIL, Design Size U-Factor Times Area Value [W/K], 1283.44252
Water Heating Coil Capacity Information,Coil:Heating:Water,PERIMETER_TOP_ZN_3 ZN REHEAT COIL,32655.89
 Component Sizing Information, AirTerminal:SingleDuct:VAV:Reheat, PERIMETER_TOP_ZN_4 ZN VAV TERMINAL, Design Size Maximum Air Flow Rate [m3/s], 0.92167
 Component Sizing Information, AirTerminal:SingleDuct:VAV:Reheat, PERIMETER_TOP_ZN_4 ZN VAV TERMINAL, Design Size Constant Minimum Air Flow Fraction, 0.10852
 Component Sizing Information, AirTerminal:SingleDuct:VAV:Reheat, PERIMETER_TOP_ZN_4 ZN VAV TERMINAL, User-Specified Constant Minimum Air Flow Fraction, 0.10000
 Component Sizing Information, AirTerminal:SingleDuct:VAV:Reheat, PERIMETER_TOP_ZN_4 ZN VAV TERMINAL, Design Size Minimum Air Flow Rate [m3/s], 9.21668E-002
 Component Sizing Information, AirTerminal:SingleDuct:VAV:Reheat, PERIMETER_TOP_ZN_4 ZN VAV TERMINAL, Design Size Maximum Flow Fraction during Reheat [], 0.30000
 Component Sizing Information, AirTerminal:SingleDuct:VAV:Reheat, PERIMETER_TOP_ZN_4 ZN VAV TERMINAL, User-Specified Maximum Flow Fraction during Reheat [], 0.50000
 Component Sizing Information, AirTerminal:SingleDuct:VAV:Reheat, PERIMETER_TOP_ZN_4 ZN VAV TERMINAL, Design Size Maximum Flow per Zone Floor Area during Reheat [m3/s-m2], 3.51102E-003
 Component Sizing Information, AirTerminal:SingleDuct:VAV:Reheat, PERIMETER_TOP_ZN_4 ZN VAV TERMINAL, Design Size Maximum Reheat Water Flow Rate [m3/s], 2.59072E-004
 Component Sizing Information, AirTerminal:SingleDuct:VAV:Reheat, PERIMETER_TOP_ZN_4 ZN VAV TERMINAL, Design Size Reheat Coil Sizing Air Volume Flow Rate [m3/s], 0.36162
 Component Sizing Information, AirTerminal:SingleDuct:VAV:Reheat, PERIMETER_TOP_ZN_4 ZN VAV TERMINAL, Design Size Reheat Coil Sizing Inlet Air Temperature [C], 12.77778
 Component Sizing Information, AirTerminal:SingleDuct:VAV:Reheat, PERIMETER_TOP_ZN_4 ZN VAV TERMINAL, Design Size Reheat Coil Sizing Inlet Air Humidity Ratio [kgWater/kgDryAir], 8.00000E-003
 Component Sizing Information, Coil:Heating:Water, PERIMETER_TOP_ZN_4 ZN REHEAT COIL, Design Size Rated Capacity [W], 11844.45025
 Component Sizing Information, Coil:Heating:Water, PERIMETER_TOP_ZN_4 ZN REHEAT COIL, Design Size Maximum Water Flow Rate [m3/s], 2.59072E-004
 Component Sizing Information, Coil:Heating:Water, PERIMETER_TOP_ZN_4 ZN REHEAT COIL, Design Size U-Factor Times Area Value [W/K], 846.54240
Water Heating Coil Capacity Information,Coil:Heating:Water,PERIMETER_TOP_ZN_4 ZN REHEAT COIL,21541.63
 Component Sizing Information, AirLoopHVAC, 15 ZONE VAV, Sum of Air Terminal Maximum Heating Flow Rates [m3/s], 8.68887
 Component Sizing Information, AirLoopHVAC, 15 ZONE VAV, Sum of Air Terminal Minimum Heating Flow Rates [m3/s], 1.73777
 Component Sizing Information, AirLoopHVAC, 15 ZONE VAV, Sum of Air Terminal Maximum Flow Rates [m3/s], 17.37773
 Component Sizing Information, AirLoopHVAC, 15 ZONE VAV, Adjusted Heating Design Air Flow Rate [m3/s], 6.77440
 Component Sizing Information, AirLoopHVAC, 15 ZONE VAV, Adjusted Cooling Design Air Flow Rate [m3/s], 14.76359
 Component Sizing Information, AirLoopHVAC, 15 ZONE VAV, Adjusted Main Design Air Flow Rate [m3/s], 14.76359
 Component Sizing Information, AirLoopHVAC, 15 ZONE VAV, User Heating Air Flow Ratio [], 0.30000
 Component Sizing Information, AirLoopHVAC, 15 ZONE VAV, Calculated Heating Air Flow Ratio [], 0.45886
 Component Sizing Information, AirLoopHVAC, 15 ZONE VAV, Design Supply Air Flow Rate [m3/s], 14.76359
!<Controller:MechanicalVentilation>,Name,Availability Schedule Name,Demand Controlled Ventilation {Yes/No},System Outdoor Air Method,Zone Maximum Outdoor Air Fraction,Number of Zones,Zone Name,DSOA Name,DSZAD Name
 Controller:MechanicalVentilation,15 ZONE VAV VENT CONTROLLER,15 ZONE VAV OCC SCH,Yes,ZoneSum,1.00,15,CORE_BOTTOM ZN,OFFICE WHOLEBUILDING - MD OFFICE VENTILATION,CORE_BOTTOM ZN DESIGN SPEC ZONE AIR DIST,CORE_MID ZN,OFFICE WHOLEBUILDING - MD OFFICE VENTILATION,CORE_MID ZN DESIGN SPEC ZONE AIR DIST,CORE_TOP ZN,OFFICE WHOLEBUILDING - MD OFFICE VENTILATION,CORE_TOP ZN DESIGN SPEC ZONE AIR DIST,PERIMETER_BOT_ZN_1 ZN,OFFICE WHOLEBUILDING - MD OFFICE VENTILATION,PERIMETER_BOT_ZN_1 ZN DESIGN SPEC ZONE AIR DIST,PERIMETER_BOT_ZN_2 ZN,OFFICE WHOLEBUILDING - MD OFFICE VENTILATION,PERIMETER_BOT_ZN_2 ZN DESIGN SPEC ZONE AIR DIST,PERIMETER_BOT_ZN_3 ZN,OFFICE WHOLEBUILDING - MD OFFICE VENTILATION,PERIMETER_BOT_ZN_3 ZN DESIGN SPEC ZONE AIR DIST,PERIMETER_BOT_ZN_4 ZN,OFFICE WHOLEBUILDING - MD OFFICE VENTILATION,PERIMETER_BOT_ZN_4 ZN DESIGN SPEC ZONE AIR DIST,PERIMETER_MID_ZN_1 ZN,OFFICE WHOLEBUILDING - MD OFFICE VENTILATION,PERIMETER_MID_ZN_1 ZN DESIGN SPEC ZONE AIR DIST,PERIMETER_MID_ZN_2 ZN,OFFICE WHOLEBUILDING - MD OFFICE VENTILATION,PERIMETER_MID_ZN_2 ZN DESIGN SPEC ZONE AIR DIST,PERIMETER_MID_ZN_3 ZN,OFFICE WHOLEBUILDING - MD OFFICE VENTILATION,PERIMETER_MID_ZN_3 ZN DESIGN SPEC ZONE AIR DIST,PERIMETER_MID_ZN_4 ZN,OFFICE WHOLEBUILDING - MD OFFICE VENTILATION,PERIMETER_MID_ZN_4 ZN DESIGN SPEC ZONE AIR DIST,PERIMETER_TOP_ZN_1 ZN,OFFICE WHOLEBUILDING - MD OFFICE VENTILATION,PERIMETER_TOP_ZN_1 ZN DESIGN SPEC ZONE AIR DIST,PERIMETER_TOP_ZN_2 ZN,OFFICE WHOLEBUILDING - MD OFFICE VENTILATION,PERIMETER_TOP_ZN_2 ZN DESIGN SPEC ZONE AIR DIST,PERIMETER_TOP_ZN_3 ZN,OFFICE WHOLEBUILDING - MD OFFICE VENTILATION,PERIMETER_TOP_ZN_3 ZN DESIGN SPEC ZONE AIR DIST,PERIMETER_TOP_ZN_4 ZN,OFFICE WHOLEBUILDING - MD OFFICE VENTILATION,PERIMETER_TOP_ZN_4 ZN DESIGN SPEC ZONE AIR DIST
 Component Sizing Information, Controller:OutdoorAir, 15 ZONE VAV OA CONTROLLER, Maximum Outdoor Air Flow Rate [m3/s], 14.76359
 Component Sizing Information, HeatExchanger:AirToAir:SensibleAndLatent, 15 ZONE VAV ERV, Design Size Nominal Supply Air Flow Rate [m3/s], 2.15131
 Component Sizing Information, Coil:Cooling:DX:TwoSpeed, 15 ZONE VAV 2SPD DX CLG COIL, Design Size High Speed Rated Air Flow Rate [m3/s], 14.76359
 Component Sizing Information, Coil:Cooling:DX:TwoSpeed, 15 ZONE VAV 2SPD DX CLG COIL, Design Size High Speed Gross Rated Total Cooling Capacity [W], 299069.81142
 Component Sizing Information, Coil:Cooling:DX:TwoSpeed, 15 ZONE VAV 2SPD DX CLG COIL, Design Size High Speed Rated Sensible Heat Ratio, 0.76744
 Component Sizing Information, Coil:Cooling:DX:TwoSpeed, 15 ZONE VAV 2SPD DX CLG COIL, Design Size Low Speed Rated Air Flow Rate [m3/s], 4.92070
 Component Sizing Information, Coil:Cooling:DX:TwoSpeed, 15 ZONE VAV 2SPD DX CLG COIL, Design Size Low Speed Gross Rated Total Cooling Capacity [W], 99679.96814
 Component Sizing Information, Coil:Cooling:DX:TwoSpeed, 15 ZONE VAV 2SPD DX CLG COIL, Design Size Low Speed Gross Rated Sensible Heat Ratio, 0.76744
 Component Sizing Information, Coil:Cooling:DX:TwoSpeed, 15 ZONE VAV 2SPD DX CLG COIL, User-Specified Low Speed Gross Rated Sensible Heat Ratio, 0.69000
! <VAV DX Cooling Coil Standard Rating Information>, DX Coil Type, DX Coil Name, Fan Type, Fan Name, Standard Net Cooling Capacity {W}, Standard Net Cooling Capacity {Btu/h}, IEER {Btu/W-h}, COP 100% Capacity {W/W}, COP 75% Capacity {W/W}, COP 50% Capacity {W/W}, COP 25% Capacity {W/W}, EER 100% Capacity {Btu/W-h}, EER 75% Capacity {Btu/W-h}, EER 50% Capacity {Btu/W-h}, EER 25% Capacity {Btu/W-h}, Supply Air Flow 100% {kg/s}, Supply Air Flow 75% {kg/s},Supply Air Flow 50% {kg/s},Supply Air Flow 25% {kg/s}
 VAV DX Cooling Coil Standard Rating Information, Coil:Cooling:DX:TwoSpeed,15 ZONE VAV 2SPD DX CLG COIL,N/A,N/A,288159.60,983241.36,10.02,2.61,2.85,3.07,3.18,8.91,9.72,10.48,10.84,16.6730,12.3843,7.7571,3.4244,
 Component Sizing Information, Coil:Heating:Water, 15 ZONE VAV MAIN HTG COIL, Design Size Rated Capacity [W], 63968.65546
 Component Sizing Information, Coil:Heating:Water, 15 ZONE VAV MAIN HTG COIL, Design Size Maximum Water Flow Rate [m3/s], 1.39918E-003
 Component Sizing Information, Coil:Heating:Water, 15 ZONE VAV MAIN HTG COIL, Design Size U-Factor Times Area Value [W/K], 1855.28675
Water Heating Coil Capacity Information,Coil:Heating:Water,15 ZONE VAV MAIN HTG COIL,87205.33
 Component Sizing Information, Fan:VariableVolume, 15 ZONE VAV FAN, Design Size Maximum Flow Rate [m3/s], 14.76359
 Component Sizing Information, Controller:WaterCoil, 15 ZONE VAV MAIN HTG COIL CONTROLLER, Maximum Actuated Flow [m3/s], 1.39918E-003
Water Heater Information,WaterHeater:Mixed,100GAL NATURAL GAS WATER HEATER - 100KBTU/HR 0.802 THERM EFF 0.808 THERM EFF,0.3785,29307.1,1.016,0.2254
 Component Sizing Information, PlantLoop, HOT WATER LOOP, Maximum Loop Flow Rate [m3/s], 6.20612E-003
 Component Sizing Information, PlantLoop, HOT WATER LOOP, Plant Loop Volume [m3], 0.74473
 Component Sizing Information, Pump:VariableSpeed, HOT WATER LOOP PUMP, Design Flow Rate [m3/s], 6.20612E-003
 Component Sizing Information, Pump:VariableSpeed, HOT WATER LOOP PUMP, Design Power Consumption [W], 1869.01160
 Component Sizing Information, Boiler:HotWater, BOILER 968KBTU/HR 0.94 COMBUSTION EFF, Design Size Nominal Capacity [W], 283736.42833
 Component Sizing Information, Boiler:HotWater, BOILER 968KBTU/HR 0.94 COMBUSTION EFF, Design Size Design Water Flow Rate [m3/s], 6.20612E-003
 Component Sizing Information, PlantLoop, MAIN SERVICE WATER LOOP, Maximum Loop Flow Rate [m3/s], 5.36265E-005
 Component Sizing Information, PlantLoop, MAIN SERVICE WATER LOOP, Plant Loop Volume [m3], 6.43518E-003
 Component Sizing Information, Pump:ConstantSpeed, SERVICE WATER LOOP PUMP, Design Flow Rate [m3/s], 5.36265E-005
 Component Sizing Information, Pump:ConstantSpeed, SERVICE WATER LOOP PUMP, Design Power Consumption [W], 16.14994
 Component Sizing Information, WaterHeater:Mixed, 100GAL NATURAL GAS WATER HEATER - 100KBTU/HR 0.802 THERM EFF 0.808 THERM EFF, Use Side Design Flow Rate [m3/s], 5.36265E-005
! <Environment>,Environment Name,Environment Type, Start Date, End Date, Start DayOfWeek, Duration {#days}, Source:Start DayOfWeek,  Use Daylight Saving, Use Holidays, Apply Weekend Holiday Rule,  Use Rain Values, Use Snow Values
! <Environment:Special Days>, Special Day Name, Special Day Type, Source, Start Date, Duration {#days}
! <Environment:Daylight Saving>, Daylight Saving Indicator, Source, Start Date, End Date
! <Environment:WarmupDays>, NumberofWarmupDays
Environment,RUN PERIOD 1,WeatherFileRunPeriod,01/01/2006,12/31/2006,Sunday,365,Use RunPeriod Specified Day,No,No,No,Yes,Yes
Environment:Daylight Saving,Yes,InputFile,03/12,11/05
Environment:WarmupDays, 10
! <Tabular Report>,Style,Unit Conversion
Tabular Report,HTML,None
! <Warmup Convergence Information>,Zone Name,Environment Type/Name,Average Warmup Temperature Difference {deltaC},Std Dev Warmup Temperature Difference {deltaC},Max Temperature Pass/Fail Convergence,Min Temperature Pass/Fail Convergence,Average Warmup Load Difference {W},Std Dev Warmup Load Difference {W},Heating Load Pass/Fail Convergence,Cooling Load Pass/Fail Convergence
 Warmup Convergence Information,CORE_BOTTOM ZN,RunPeriod: RUN PERIOD 1,4.8420945093E-002,2.8858223302E-002,Pass,Pass,0.4958098996,0.4962011297,Pass,Pass
 Warmup Convergence Information,CORE_MID ZN,RunPeriod: RUN PERIOD 1,1.4177798899E-002,8.0021340912E-003,Pass,Pass,0.5252396956,0.5016952535,Pass,Pass
 Warmup Convergence Information,CORE_TOP ZN,RunPeriod: RUN PERIOD 1,8.9192851236E-002,0.1066335469,Pass,Pass,13.0603747901,34.3773130869,Pass,Pass
 Warmup Convergence Information,FIRSTFLOOR_PLENUM ZN,RunPeriod: RUN PERIOD 1,1.2092234099E-002,8.5450969230E-003,Pass,Pass,0.0000000000,0.0000000000,Pass,Pass
 Warmup Convergence Information,MIDFLOOR_PLENUM ZN,RunPeriod: RUN PERIOD 1,1.3014430722E-002,1.0038368649E-002,Pass,Pass,0.0000000000,0.0000000000,Pass,Pass
 Warmup Convergence Information,PERIMETER_BOT_ZN_1 ZN,RunPeriod: RUN PERIOD 1,0.1052587574,0.1163169340,Pass,Pass,0.9134157487,2.8213040754,Pass,Pass
 Warmup Convergence Information,PERIMETER_BOT_ZN_2 ZN,RunPeriod: RUN PERIOD 1,7.8284942037E-002,8.5540574987E-002,Pass,Pass,2.0716581395,16.0712561270,Pass,Pass
 Warmup Convergence Information,PERIMETER_BOT_ZN_3 ZN,RunPeriod: RUN PERIOD 1,3.4868765687E-002,3.7260939991E-002,Pass,Pass,0.7700025672,0.9606169376,Pass,Pass
 Warmup Convergence Information,PERIMETER_BOT_ZN_4 ZN,RunPeriod: RUN PERIOD 1,6.1181450928E-002,6.1074348508E-002,Pass,Pass,0.8149158199,1.6603860520,Pass,Pass
 Warmup Convergence Information,PERIMETER_MID_ZN_1 ZN,RunPeriod: RUN PERIOD 1,0.2069236786,0.2561235085,Pass,Pass,6.7347274019,39.2696870254,Pass,Pass
 Warmup Convergence Information,PERIMETER_MID_ZN_2 ZN,RunPeriod: RUN PERIOD 1,0.2349222568,0.3034116168,Pass,Pass,122.4058865721,1012.9164959420,Pass,Pass
 Warmup Convergence Information,PERIMETER_MID_ZN_3 ZN,RunPeriod: RUN PERIOD 1,0.2863726097,0.2995558712,Pass,Pass,132.7673737563,1015.9531712747,Pass,Pass
 Warmup Convergence Information,PERIMETER_MID_ZN_4 ZN,RunPeriod: RUN PERIOD 1,0.3020111014,0.3459997535,Pass,Pass,23.5080274529,96.0172261084,Pass,Pass
 Warmup Convergence Information,PERIMETER_TOP_ZN_1 ZN,RunPeriod: RUN PERIOD 1,0.3351685957,0.4189868558,Pass,Pass,32.1896421770,261.3358670187,Pass,Pass
 Warmup Convergence Information,PERIMETER_TOP_ZN_2 ZN,RunPeriod: RUN PERIOD 1,0.4104289235,0.4716942405,Pass,Pass,18.3605348458,75.6953328548,Pass,Pass
 Warmup Convergence Information,PERIMETER_TOP_ZN_3 ZN,RunPeriod: RUN PERIOD 1,0.4753885319,0.4622962694,Pass,Pass,26.4993673225,99.6898596588,Pass,Pass
 Warmup Convergence Information,PERIMETER_TOP_ZN_4 ZN,RunPeriod: RUN PERIOD 1,0.4979356591,0.5246994907,Pass,Pass,19.4033277440,63.2118927553,Pass,Pass
 Warmup Convergence Information,TOPFLOOR_PLENUM ZN,RunPeriod: RUN PERIOD 1,3.9048224186E-002,3.8016426007E-002,Pass,Pass,0.0000000000,0.0000000000,Pass,Pass
! <Program Control Information:Threads/Parallel Sims>, Threading Supported,Maximum Number of Threads, Env Set Threads (OMP_NUM_THREADS), EP Env Set Threads (EP_OMP_NUM_THREADS), IDF Set Threads, Number of Threads Used (Interior Radiant Exchange), Number Nominal Surfaces, Number Parallel Sims
Program Control:Threads/Parallel Sims, No,1, N/A, N/A, N/A, N/A, N/A, N/A
End of Data
